CemigDFeeders/IIGU115/IIGU115SegmentosMT.dss
new line.TR10275945 bus1=BMT6480259B.1.2.3,bus2=BMT172017067.1.2.3,Phases=3,Linecode=CABA06_3_3,Length=0.040232000,Units=km
new line.TR10276015 bus1=BMT6480420B.1.2.3,bus2=BMT6480462B.1.2.3,Phases=3,Linecode=CABA06_3_3,Length=0.040689000,Units=km
new line.TR10276036 bus1=BMT6480448B.1.2.3,bus2=BMT6480259B.1.2.3,Phases=3,Linecode=CABA06_3_3,Length=0.040689000,Units=km
new line.TR10276043 bus1=BMT6480455B.1.2.3,bus2=BMT6480448B.1.2.3,Phases=3,Linecode=CABA06_3_3,Length=0.044276000,Units=km
new line.TR10276050 bus1=BMT6480462B.1.2.3,bus2=BMT6480455B.1.2.3,Phases=3,Linecode=CABA06_3_3,Length=0.039808000,Units=km
new line.TR10276057 bus1=BMT6480469B.1.2.3,bus2=BMT6480420B.1.2.3,Phases=3,Linecode=CABA06_3_3,Length=0.049628000,Units=km
new line.TR10276099 bus1=BMT6480735B.1.2.3,bus2=BMT6480742B.1.2.3,Phases=3,Linecode=CABA06_3_3,Length=0.036700000,Units=km
new line.TR10276106 bus1=BMT6480742B.1.2.3,bus2=BMT172017066.1.2.3,Phases=3,Linecode=CABA06_3_3,Length=0.018377000,Units=km
new line.TR10276113 bus1=BMT172017066.1.2.3,bus2=BMT6480756B.1.2.3,Phases=3,Linecode=CABA06_3_3,Length=0.039996000,Units=km
new line.TR10276120 bus1=BMT6480756B.1.2.3,bus2=BMT6480763B.1.2.3,Phases=3,Linecode=CABA06_3_3,Length=0.038311000,Units=km
new line.TR10276127 bus1=BMT6480763B.1.2.3,bus2=BMT6480770B.1.2.3,Phases=3,Linecode=CABA06_3_3,Length=0.039303000,Units=km
new line.TR10276134 bus1=BMT6480770B.1.2.3,bus2=BMT6480469B.1.2.3,Phases=3,Linecode=CABA06_3_3,Length=0.030581000,Units=km
new line.TR10276141 bus1=BMT6480784B.1.2.3,bus2=BMT172017063.1.2.3,Phases=3,Linecode=CABA06_3_3,Length=0.015258000,Units=km
new line.TR10276148 bus1=BMT6480791B.1.2.3,bus2=BMT6480784B.1.2.3,Phases=3,Linecode=CABA06_3_3,Length=0.039341000,Units=km
new line.TR10276155 bus1=BMT6480798B.1.2.3,bus2=BMT6480791B.1.2.3,Phases=3,Linecode=CABA06_3_3,Length=0.033927000,Units=km
new line.TR10276162 bus1=BMT6480805B.1.2.3,bus2=BMT6480798B.1.2.3,Phases=3,Linecode=CABA06_3_3,Length=0.036604000,Units=km
new line.TR10276169 bus1=BMT6480812B.1.2.3,bus2=BMT6480805B.1.2.3,Phases=3,Linecode=CABA06_3_3,Length=0.013033000,Units=km
new line.TR10276183 bus1=BMT6480826B.1.2.3,bus2=BMT6480812B.1.2.3,Phases=3,Linecode=CABA06_3_3,Length=0.043913000,Units=km
new line.TR10276190 bus1=BMT6480833B.1.2.3,bus2=BMT6480826B.1.2.3,Phases=3,Linecode=CABA06_3_3,Length=0.034467000,Units=km
new line.TR10276204 bus1=BMT6480854B.1.2.3,bus2=BMT6480833B.1.2.3,Phases=3,Linecode=CABA06_3_3,Length=0.035114000,Units=km
new line.TR10276211 bus1=BMT6480861B.1.2.3,bus2=BMT6480854B.1.2.3,Phases=3,Linecode=CABA06_3_3,Length=0.038623000,Units=km
new line.TR10276218 bus1=BMT172017061.1.2.3,bus2=BMT6480861B.1.2.3,Phases=3,Linecode=CABA06_3_3,Length=0.035720000,Units=km
new line.TR10276225 bus1=BMT172017061.1.2.3,bus2=BMT172017064.1.2.3,Phases=3,Linecode=CABA06_3_3,Length=0.025951000,Units=km
new line.TR10276253 bus1=BMT6481008B.1.2.3,bus2=BMT172017061.1.2.3,Phases=3,Linecode=CABA06_3_3,Length=0.042702000,Units=km
new line.TR10276344 bus1=BMT6481127B.1.2.3,bus2=BMT6481008B.1.2.3,Phases=3,Linecode=CABA06_3_3,Length=0.019992000,Units=km
new line.TR10276365 bus1=BMT172017060.1.2.3,bus2=BMT6481127B.1.2.3,Phases=3,Linecode=CABA06_3_3,Length=0.032375000,Units=km
new line.TR10276372 bus1=BMT172017060.1.2.3,bus2=BMT6481260B.1.2.3,Phases=3,Linecode=CABA06_3_3,Length=0.055708000,Units=km
new line.TR10276379 bus1=BMT6481197B.1.2.3,bus2=BMT172017060.1.2.3,Phases=3,Linecode=CABA06_3_3,Length=0.035453000,Units=km
new line.TR10276386 bus1=BMT6481204B.1.2.3,bus2=BMT6481197B.1.2.3,Phases=3,Linecode=CABA06_3_3,Length=0.042702000,Units=km
new line.TR10276393 bus1=BMT6481211B.1.2.3,bus2=BMT6481204B.1.2.3,Phases=3,Linecode=CABA06_3_3,Length=0.041214000,Units=km
new line.TR10276400 bus1=BMT6481218B.1.2.3,bus2=BMT6481211B.1.2.3,Phases=3,Linecode=CABA06_3_3,Length=0.041767000,Units=km
new line.TR10276407 bus1=BMT6481239B.1.2.3,bus2=BMT6481218B.1.2.3,Phases=3,Linecode=CABA06_3_3,Length=0.039429000,Units=km
new line.TR10276414 bus1=BMT6481246B.1.2.3,bus2=BMT6481239B.1.2.3,Phases=3,Linecode=CABA06_3_3,Length=0.039946000,Units=km
new line.TR10276421 bus1=BMT6481253B.1.2.3,bus2=BMT6481246B.1.2.3,Phases=3,Linecode=CABA06_3_3,Length=0.039795000,Units=km
new line.TR10276428 bus1=BMT6481260B.1.2.3,bus2=BMT6481267B.1.2.3,Phases=3,Linecode=CABA06_3_3,Length=0.039379000,Units=km
new line.TR10276435 bus1=BMT6481267B.1.2.3,bus2=BMT6481274B.1.2.3,Phases=3,Linecode=CABA06_3_3,Length=0.040591000,Units=km
new line.TR10276442 bus1=BMT6481274B.1.2.3,bus2=BMT6481281B.1.2.3,Phases=3,Linecode=CABA06_3_3,Length=0.034985000,Units=km
new line.TR10276449 bus1=BMT6481281B.1.2.3,bus2=BMT172017062.1.2.3,Phases=3,Linecode=CABA06_3_3,Length=0.042924000,Units=km
new line.TR10276463 bus1=BMT6481428B.1.2.3,bus2=BMT6481253B.1.2.3,Phases=3,Linecode=CABA06_3_3,Length=0.033227000,Units=km
new line.TR10276470 bus1=BMT172017059.1.2.3,bus2=BMT6481428B.1.2.3,Phases=3,Linecode=CABA06_3_3,Length=0.030220000,Units=km
new line.TR10276855 bus1=BMT172017063.1.2.3,bus2=BMT172017065.1.2.3,Phases=3,Linecode=CABA06_3_3,Length=0.033986000,Units=km
new line.TR10276862 bus1=BMT172017063.1.2.3,bus2=BMT6480728B.1.2.3,Phases=3,Linecode=CABA06_3_3,Length=0.006322000,Units=km
new line.TR10276869 bus1=BMT172017063.1.2.3,bus2=BMT6480735B.1.2.3,Phases=3,Linecode=CABA06_3_3,Length=0.023185000,Units=km
new line.TR10358384 bus1=BMT172015437.1.2.3,bus2=BMT172015439.1.2.3,Phases=3,Linecode=CAB107_3_3,Length=0.004241000,Units=km
new line.TR10385768 bus1=BMT172016614.1.2.3,bus2=BMT172016615.1.2.3,Phases=3,Linecode=CAB207_3_3,Length=0.030871000,Units=km
new line.TR10566186 bus1=BMT172016284.3,bus2=BMT6826997B.3,Phases=1,Linecode=CAB103_3_1,Length=0.040478000,Units=km
new line.TR10566193 bus1=BMT6826997B.3,bus2=BMT172016298.3,Phases=1,Linecode=CAB103_3_1,Length=0.041861000,Units=km
new line.TR10566543 bus1=BMT2611065B.1,bus2=BMT172015905.1,Phases=1,Linecode=CAB202_3_1,Length=0.167871000,Units=km
new line.TR10566550 bus1=BMT172015905.1,bus2=BMT172015906.1,Phases=1,Linecode=CAB202_3_1,Length=0.030874000,Units=km
new line.TR10567131 bus1=BMT172015907.1,bus2=BMT6827508B.1,Phases=1,Linecode=CAB202_3_1,Length=0.174080000,Units=km
new line.TR10567138 bus1=BMT6827508B.1,bus2=BMT6827529B.1,Phases=1,Linecode=CAB202_3_1,Length=0.139568000,Units=km
new line.TR10567152 bus1=BMT6827529B.1,bus2=BMT6827550B.1,Phases=1,Linecode=CAB202_3_1,Length=0.101357000,Units=km
new line.TR10567159 bus1=BMT6827550B.1,bus2=BMT6827571B.1,Phases=1,Linecode=CAB202_3_1,Length=0.073542000,Units=km
new line.TR10567166 bus1=BMT6827571B.1,bus2=BMT6827592B.1,Phases=1,Linecode=CAB202_3_1,Length=0.042702000,Units=km
new line.TR10567173 bus1=BMT6827592B.1,bus2=BMT172015908.1,Phases=1,Linecode=CAB202_3_1,Length=0.059783000,Units=km
new line.TR10567278 bus1=BMT172015908.1,bus2=BMT172015909.1,Phases=1,Linecode=CAB202_3_1,Length=0.377860000,Units=km
new line.TR10567285 bus1=BMT172015922.1,bus2=BMT6827627B.1,Phases=1,Linecode=CAB202_3_1,Length=0.021015000,Units=km
new line.TR10567397 bus1=BMT172015923.1,bus2=BMT172015924.1,Phases=1,Linecode=CAB202_3_1,Length=0.321916000,Units=km
new line.TR10567418 bus1=BMT172015924.1,bus2=BMT172015926.1,Phases=1,Linecode=CAB202_3_1,Length=0.391644000,Units=km
new line.TR10567425 bus1=BMT172015926.1,bus2=BMT172015928.1,Phases=1,Linecode=CAB202_3_1,Length=0.186547000,Units=km
new line.TR10567446 bus1=BMT172015924.1,bus2=BMT172015927.1,Phases=1,Linecode=CAB202_3_1,Length=0.076290000,Units=km
new line.TR10567677 bus1=BMT172015926.1,bus2=BMT172015929.1,Phases=1,Linecode=CAB202_3_1,Length=0.138000000,Units=km
new line.TR10567684 bus1=BMT172015908.1,bus2=BMT172015910.1,Phases=1,Linecode=CAB202_3_1,Length=0.114013000,Units=km
new line.TR10569049 bus1=BMT6827627B.1,bus2=BMT172015923.1,Phases=1,Linecode=CAB202_3_1,Length=0.590563000,Units=km
new line.TR10569063 bus1=BMT172015923.1,bus2=BMT172015925.1,Phases=1,Linecode=CAB202_3_1,Length=0.085439000,Units=km
new line.TR10569343 bus1=BMT172015908.1,bus2=BMT6829580B.1,Phases=1,Linecode=CAB202_3_1,Length=0.498911000,Units=km
new line.TR10569350 bus1=BMT6829580B.1,bus2=BMT172015911.1,Phases=1,Linecode=CAB202_3_1,Length=0.197507000,Units=km
new line.TR10569357 bus1=BMT172015911.1,bus2=BMT6829601B.1,Phases=1,Linecode=CAB202_3_1,Length=0.107142000,Units=km
new line.TR10569385 bus1=BMT6829601B.1,bus2=BMT172015912.1,Phases=1,Linecode=CAB202_3_1,Length=0.338855000,Units=km
new line.TR10569413 bus1=BMT172015912.1,bus2=BMT6829629B.1,Phases=1,Linecode=CAB202_3_1,Length=0.135667000,Units=km
new line.TR10569420 bus1=BMT6829629B.1,bus2=BMT6829671B.1,Phases=1,Linecode=CAB202_3_1,Length=0.145764000,Units=km
new line.TR10569427 bus1=BMT6829671B.1,bus2=BMT6829678B.1,Phases=1,Linecode=CAB202_3_1,Length=0.088850000,Units=km
new line.TR10569455 bus1=BMT6829678B.1,bus2=BMT172015914.1,Phases=1,Linecode=CAB202_3_1,Length=0.232979000,Units=km
new line.TR10569476 bus1=BMT172015914.1,bus2=BMT6829713B.1,Phases=1,Linecode=CAB202_3_1,Length=0.512182000,Units=km
new line.TR10569546 bus1=BMT6829713B.1,bus2=BMT172015916.1,Phases=1,Linecode=CAB202_3_1,Length=0.099818000,Units=km
new line.TR10569553 bus1=BMT172015916.1,bus2=BMT6829748B.1,Phases=1,Linecode=CAB202_3_1,Length=0.265989000,Units=km
new line.TR10569567 bus1=BMT6829748B.1,bus2=BMT172015918.1,Phases=1,Linecode=CAB202_3_1,Length=0.452162000,Units=km
new line.TR10569574 bus1=BMT172015918.1,bus2=BMT6829776B.1,Phases=1,Linecode=CAB202_3_1,Length=0.310468000,Units=km
new line.TR10569581 bus1=BMT6829776B.1,bus2=BMT172015920.1,Phases=1,Linecode=CAB202_3_1,Length=0.080022000,Units=km
new line.TR10569623 bus1=BMT172015918.1,bus2=BMT172015921.1,Phases=1,Linecode=CAB202_3_1,Length=0.058388000,Units=km
new line.TR10569987 bus1=BMT172015916.1,bus2=BMT6829839B.1,Phases=1,Linecode=CAB202_3_1,Length=0.048312000,Units=km
new line.TR10570064 bus1=BMT6829839B.1,bus2=BMT172015919.1,Phases=1,Linecode=CAB202_3_1,Length=0.077337000,Units=km
new line.TR10570106 bus1=BMT172015914.1,bus2=BMT6829867B.1,Phases=1,Linecode=CAB202_3_1,Length=0.029263000,Units=km
new line.TR10570113 bus1=BMT6829867B.1,bus2=BMT6829881B.1,Phases=1,Linecode=CAB202_3_1,Length=0.037348000,Units=km
new line.TR10570127 bus1=BMT6829881B.1,bus2=BMT172015917.1,Phases=1,Linecode=CAB202_3_1,Length=0.036863000,Units=km
new line.TR10570239 bus1=BMT172015912.1,bus2=BMT172015915.1,Phases=1,Linecode=CAB202_3_1,Length=0.190314000,Units=km
new line.TR10570288 bus1=BMT172015911.1,bus2=BMT172015913.1,Phases=1,Linecode=CAB202_3_1,Length=0.098994000,Units=km
new line.TR10182684 bus1=BMT172015788.1.2.3,bus2=BMT1644603B.1.2.3,Phases=3,Linecode=CAB103_3_3,Length=0.022815000,Units=km
new line.TR10182691 bus1=BMT172015788.1.2.3,bus2=BMT6330767B.1.2.3,Phases=3,Linecode=CABA06_3_3,Length=0.014860000,Units=km
new line.TR10183286 bus1=BMT6330767B.1.2.3,bus2=BMT172015790.1.2.3,Phases=3,Linecode=CABA06_3_3,Length=0.034524000,Units=km
new line.TR10183293 bus1=BMT172015790.1.2.3,bus2=BMT6330781B.1.2.3,Phases=3,Linecode=CABA06_3_3,Length=0.030252000,Units=km
new line.TR10183300 bus1=BMT172015790.1.2.3,bus2=BMT6330837B.1.2.3,Phases=3,Linecode=CABA06_3_3,Length=0.030449000,Units=km
new line.TR10183307 bus1=BMT6330781B.1.2.3,bus2=BMT6330788B.1.2.3,Phases=3,Linecode=CABA06_3_3,Length=0.039441000,Units=km
new line.TR10183314 bus1=BMT6330788B.1.2.3,bus2=BMT6330802B.1.2.3,Phases=3,Linecode=CABA06_3_3,Length=0.041418000,Units=km
new line.TR10183328 bus1=BMT6330802B.1.2.3,bus2=BMT6330809B.1.2.3,Phases=3,Linecode=CABA06_3_3,Length=0.025009000,Units=km
new line.TR10183335 bus1=BMT6330809B.1.2.3,bus2=BMT6330816B.1.2.3,Phases=3,Linecode=CABA06_3_3,Length=0.039033000,Units=km
new line.TR10183342 bus1=BMT6330816B.1.2.3,bus2=BMT172015791.1.2.3,Phases=3,Linecode=CABA06_3_3,Length=0.039441000,Units=km
new line.TR10183349 bus1=BMT6330837B.1.2.3,bus2=BMT6330844B.1.2.3,Phases=3,Linecode=CABA06_3_3,Length=0.031939000,Units=km
new line.TR10183356 bus1=BMT6330844B.1.2.3,bus2=BMT6330851B.1.2.3,Phases=3,Linecode=CABA06_3_3,Length=0.030070000,Units=km
new line.TR10183363 bus1=BMT6330851B.1.2.3,bus2=BMT6330956B.1.2.3,Phases=3,Linecode=CABA06_3_3,Length=0.025168000,Units=km
new line.TR10183370 bus1=BMT6330858B.1.2.3,bus2=BMT6330963B.1.2.3,Phases=3,Linecode=CABA06_3_3,Length=0.040293000,Units=km
new line.TR10183384 bus1=BMT6330886B.1.2.3,bus2=BMT6330893B.1.2.3,Phases=3,Linecode=CABA06_3_3,Length=0.020215000,Units=km
new line.TR10183391 bus1=BMT6330893B.1.2.3,bus2=BMT6330900B.1.2.3,Phases=3,Linecode=CABA06_3_3,Length=0.060379000,Units=km
new line.TR10183398 bus1=BMT6330900B.1.2.3,bus2=BMT6330907B.1.2.3,Phases=3,Linecode=CABA06_3_3,Length=0.039187000,Units=km
new line.TR10183405 bus1=BMT6330907B.1.2.3,bus2=BMT172015793.1.2.3,Phases=3,Linecode=CABA06_3_3,Length=0.041285000,Units=km
new line.TR10183419 bus1=BMT6330956B.1.2.3,bus2=BMT6330858B.1.2.3,Phases=3,Linecode=CABA06_3_3,Length=0.033999000,Units=km
new line.TR10183426 bus1=BMT6330963B.1.2.3,bus2=BMT6330970B.1.2.3,Phases=3,Linecode=CABA06_3_3,Length=0.041285000,Units=km
new line.TR10183433 bus1=BMT6330970B.1.2.3,bus2=BMT172015792.1.2.3,Phases=3,Linecode=CABA06_3_3,Length=0.039187000,Units=km
new line.TR10184126 bus1=BMT6332139B.1.2.3,bus2=BMT172015447.1.2.3,Phases=3,Linecode=CAB207_3_3,Length=0.029107000,Units=km
new line.TR10184168 bus1=BMT6332265B.1.2.3,bus2=BMT6332209B.1.2.3,Phases=3,Linecode=CAB207_3_3,Length=0.022793000,Units=km
new line.TR10972571 bus1=BMT3315167B.1.2.3,bus2=BMT172016987.1.2.3,Phases=3,Linecode=CAB202_3_3,Length=0.200950000,Units=km
new line.TR10972578 bus1=BMT172016987.1.2.3,bus2=BMT172016988.1.2.3,Phases=3,Linecode=CAB202_3_3,Length=0.021532000,Units=km
new line.TR10972585 bus1=BMT172016987.1.2.3,bus2=BMT172016989.1.2.3,Phases=3,Linecode=CAB203_3_3,Length=0.046509000,Units=km
new line.TR10972606 bus1=BMT172016990.1.2.3,bus2=BMT7209505B.1.2.3,Phases=3,Linecode=CAB203_3_3,Length=0.095168000,Units=km
new line.TR10972613 bus1=BMT7209505B.1.2.3,bus2=BMT7209519B.1.2.3,Phases=3,Linecode=CAB203_3_3,Length=0.062622000,Units=km
new line.TR10972641 bus1=BMT172016995.1.2.3,bus2=BMT7209561B.1.2.3,Phases=3,Linecode=CAB203_3_3,Length=0.145626000,Units=km
new line.TR10972648 bus1=BMT7209561B.1.2.3,bus2=BMT7209554B.1.2.3,Phases=3,Linecode=CAB203_3_3,Length=0.064353000,Units=km
new line.TR10972655 bus1=BMT7209554B.1.2.3,bus2=BMT7209547B.1.2.3,Phases=3,Linecode=CAB203_3_3,Length=0.081530000,Units=km
new line.TR10972662 bus1=BMT7209547B.1.2.3,bus2=BMT172016994.1.2.3,Phases=3,Linecode=CAB203_3_3,Length=0.086783000,Units=km
new line.TR10972669 bus1=BMT172016994.1.2.3,bus2=BMT7209533B.1.2.3,Phases=3,Linecode=CAB203_3_3,Length=0.406454000,Units=km
new line.TR10972676 bus1=BMT7209533B.1.2.3,bus2=BMT172016993.1.2.3,Phases=3,Linecode=CAB203_3_3,Length=0.050426000,Units=km
new line.TR10972697 bus1=BMT172016997.3,bus2=BMT172016998.3,Phases=1,Linecode=CAB202_3_1,Length=0.088730000,Units=km
new line.TR11258990 bus1=BMT172015358.1.2.3,bus2=BMT7475841B.1.2.3,Phases=3,Linecode=CAB208_3_3,Length=0.120279000,Units=km
new line.TR11258997 bus1=BMT7475841B.1.2.3,bus2=BMT3294419B.1.2.3,Phases=3,Linecode=CAB208_3_3,Length=0.116786000,Units=km
new line.TR11586688 bus1=BMT172015488.1.2.3,bus2=BMT7790085B.1.2.3,Phases=3,Linecode=CAB103_3_3,Length=0.020607000,Units=km
new line.TR11586695 bus1=BMT7790085B.1.2.3,bus2=BMT1643308B.1.2.3,Phases=3,Linecode=CAB103_3_3,Length=0.015805000,Units=km
new line.TR11593324 bus1=BMT172016336.3,bus2=BMT172016338.3,Phases=1,Linecode=CAB103_3_1,Length=0.022462000,Units=km
new line.TR11607541 bus1=BMT3624847B.3,bus2=BMT3624840B.3,Phases=1,Linecode=CAB103_3_1,Length=0.059789000,Units=km
new line.TR11607548 bus1=BMT3624840B.3,bus2=BMT172016465.3,Phases=1,Linecode=CAB103_3_1,Length=0.054537000,Units=km
new line.TR11607597 bus1=BMT172016463.3,bus2=BMT7810609B.3,Phases=1,Linecode=CAB103_3_1,Length=0.021014000,Units=km
new line.TR10449132 bus1=BMT172016123.3,bus2=BMT172016126.3,Phases=1,Linecode=CAB103_3_1,Length=0.040833000,Units=km
new line.TR10706634 bus1=BMT172016271.3,bus2=BMT6969594B.3,Phases=1,Linecode=CAB103_3_1,Length=0.089429000,Units=km
new line.TR10706641 bus1=BMT6969594B.3,bus2=BMT172016273.3,Phases=1,Linecode=CAB103_3_1,Length=0.027790000,Units=km
new line.TR10706648 bus1=BMT172016273.3,bus2=BMT172016274.3,Phases=1,Linecode=CAB202_3_1,Length=0.119547000,Units=km
new line.TR10718912 bus1=BMT172016572.2,bus2=BMT172016574.2,Phases=1,Linecode=CAB202_3_1,Length=0.246491000,Units=km
new line.TR10718919 bus1=BMT172016574.2,bus2=BMT172016575.2,Phases=1,Linecode=CAB202_3_1,Length=0.137240000,Units=km
new line.TR10718926 bus1=BMT172016574.2,bus2=BMT6981039B.2,Phases=1,Linecode=CAB202_3_1,Length=0.179540000,Units=km
new line.TR10718933 bus1=BMT6981039B.2,bus2=BMT172016576.2,Phases=1,Linecode=CAB202_3_1,Length=0.122317000,Units=km
new line.TR10719843 bus1=BMT172015612.1,bus2=BMT172015616.1,Phases=1,Linecode=CAB202_3_1,Length=0.101506000,Units=km
new line.TR10724645 bus1=BMT172015649.2,bus2=BMT172015651.2,Phases=1,Linecode=CAB202_3_1,Length=0.087777000,Units=km
new line.TR10724652 bus1=BMT172015651.2,bus2=BMT172015652.2,Phases=1,Linecode=CAB202_3_1,Length=0.025542000,Units=km
new line.TR10724659 bus1=BMT172015651.2,bus2=BMT172015653.2,Phases=1,Linecode=CAB103_3_1,Length=0.048855000,Units=km
new line.TR10725282 bus1=BMT172015882.1,bus2=BMT6989341B.1,Phases=1,Linecode=CAB202_3_1,Length=0.018860000,Units=km
new line.TR10725345 bus1=BMT6989341B.1,bus2=BMT172015885.1,Phases=1,Linecode=CAB202_3_1,Length=0.122442000,Units=km
new line.TR11458154 bus1=BMT172607066.2,bus2=BMT7659864B.2,Phases=1,Linecode=CAB103_3_1,Length=0.061632000,Units=km
new line.TR11458161 bus1=BMT7659864B.2,bus2=BMT172607069.2,Phases=1,Linecode=CAB103_3_1,Length=0.009052000,Units=km
new line.TR11780357 bus1=BMT172016411.3,bus2=BMT7950735B.3,Phases=1,Linecode=CAB202_3_1,Length=0.062772000,Units=km
new line.TR11780364 bus1=BMT172016408.3,bus2=BMT7950735B.3,Phases=1,Linecode=CAB202_3_1,Length=0.062939000,Units=km
new line.TR11780385 bus1=BMT172016258.3,bus2=BMT7950749B.3,Phases=1,Linecode=CAB202_3_1,Length=0.074430000,Units=km
new line.TR11780392 bus1=BMT7950749B.3,bus2=BMT172016261.3,Phases=1,Linecode=CAB202_3_1,Length=0.071834000,Units=km
new line.TR11788211 bus1=BMT172016735.1,bus2=BMT172016734.1,Phases=1,Linecode=CAB103_3_1,Length=0.031606000,Units=km
new line.TR11788246 bus1=BMT172016732.1,bus2=BMT172016734.1,Phases=1,Linecode=CAB102_3_1,Length=0.034216000,Units=km
new line.TR11790801 bus1=BMT3288406B.1.2.3,bus2=BMT172015352.1.2.3,Phases=3,Linecode=CAB208_3_3,Length=0.080241000,Units=km
new line.TR11790808 bus1=BMT172015353.1.2.3,bus2=BMT172015355.1.2.3,Phases=3,Linecode=CAB208_3_3,Length=0.080241000,Units=km
new line.TR11790934 bus1=BMT172015852.1.2.3,bus2=BMT7959394B.1.2.3,Phases=3,Linecode=CAB103_3_3,Length=0.032543000,Units=km
new line.TR11790941 bus1=BMT7959394B.1.2.3,bus2=BMT172015853.1.2.3,Phases=3,Linecode=CAB103_3_3,Length=0.035368000,Units=km
new line.TR11791179 bus1=BMT172015772.1.2.3,bus2=BMT6141508B.1.2.3,Phases=3,Linecode=CABA08_3_3,Length=0.039187000,Units=km
new line.TR11791200 bus1=BMT6141508B.1.2.3,bus2=BMT172015771.1.2.3,Phases=3,Linecode=CABA08_3_3,Length=0.054463000,Units=km
new line.TR11813194 bus1=BMT172665610.3,bus2=BMT172665613.3,Phases=1,Linecode=CAB202_3_1,Length=0.182916000,Units=km
new line.TR11813215 bus1=BMT172665613.3,bus2=BMT7977496B.3,Phases=1,Linecode=CAB103_3_1,Length=0.046818000,Units=km
new line.TR11813222 bus1=BMT7977496B.3,bus2=BMT7977503B.3,Phases=1,Linecode=CAB103_3_1,Length=0.050425000,Units=km
new line.TR11813285 bus1=BMT7977503B.3,bus2=BMT172665617.3,Phases=1,Linecode=CAB103_3_1,Length=0.037104000,Units=km
new line.TR11813502 bus1=BMT172016506.2,bus2=BMT1648390B.2,Phases=1,Linecode=CABA06_3_1,Length=0.033105000,Units=km
new line.TR11813509 bus1=BMT1648390B.2,bus2=BMT172016507.2,Phases=1,Linecode=CABA06_3_1,Length=0.038892000,Units=km
new line.TR11815161 bus1=BMT172017092.3,bus2=BMT172017093.3,Phases=1,Linecode=CABA06_3_1,Length=0.027155000,Units=km
new line.TR11815168 bus1=BMT172017093.3,bus2=BMT3085294B.3,Phases=1,Linecode=CABA06_3_1,Length=0.033512000,Units=km
new line.TR11815175 bus1=BMT3085294B.3,bus2=BMT7268606B.3,Phases=1,Linecode=CABA06_3_1,Length=0.034118000,Units=km
new line.TR11815189 bus1=BMT7268606B.3,bus2=BMT3085301B.3,Phases=1,Linecode=CABA06_3_1,Length=0.036385000,Units=km
new line.TR11815196 bus1=BMT3085301B.3,bus2=BMT4867263B.3,Phases=1,Linecode=CABA06_3_1,Length=0.037720000,Units=km
new line.TR11815217 bus1=BMT4867263B.3,bus2=BMT4867277B.3,Phases=1,Linecode=CABA06_3_1,Length=0.034044000,Units=km
new line.TR11815224 bus1=BMT4867277B.3,bus2=BMT4867284B.3,Phases=1,Linecode=CABA06_3_1,Length=0.033092000,Units=km
new line.TR11815231 bus1=BMT4867284B.3,bus2=BMT172017094.3,Phases=1,Linecode=CABA06_3_1,Length=0.034000000,Units=km
new line.TR11815924 bus1=BMT172665621.3,bus2=BMT7978959B.3,Phases=1,Linecode=CAB202_3_1,Length=0.052368000,Units=km
new line.TR11815931 bus1=BMT7978959B.3,bus2=BMT172665624.3,Phases=1,Linecode=CAB202_3_1,Length=0.130024000,Units=km
new line.TR11607604 bus1=BMT7810609B.3,bus2=BMT1680422B.3,Phases=1,Linecode=CAB103_3_1,Length=0.047496000,Units=km
new line.TR11607744 bus1=BMT1680422B.3,bus2=BMT7810679B.3,Phases=1,Linecode=CAB103_3_1,Length=0.031766000,Units=km
new line.TR11607751 bus1=BMT3624847B.3,bus2=BMT7810679B.3,Phases=1,Linecode=CAB103_3_1,Length=0.033271000,Units=km
new line.TR11621142 bus1=BMT172015534.3,bus2=BMT7821403B.3,Phases=1,Linecode=CABA06_3_1,Length=0.030070000,Units=km
new line.TR11621149 bus1=BMT7821403B.3,bus2=BMT172015535.3,Phases=1,Linecode=CABA06_3_1,Length=0.020215000,Units=km
new line.TR11621954 bus1=BMT172015524.1.2.3,bus2=BMT7821284B.1.2.3,Phases=3,Linecode=CABA06_3_3,Length=0.028831000,Units=km
new line.TR11621961 bus1=BMT7821284B.1.2.3,bus2=BMT7821291B.1.2.3,Phases=3,Linecode=CABA06_3_3,Length=0.033226000,Units=km
new line.TR11621968 bus1=BMT7821291B.1.2.3,bus2=BMT172015526.1.2.3,Phases=3,Linecode=CABA06_3_3,Length=0.037996000,Units=km
new line.TR11621975 bus1=BMT172015526.1.2.3,bus2=BMT172015527.1.2.3,Phases=3,Linecode=CABA06_3_3,Length=0.030070000,Units=km
new line.TR11621982 bus1=BMT172015527.1.2.3,bus2=BMT7821445B.1.2.3,Phases=3,Linecode=CABA06_3_3,Length=0.025287000,Units=km
new line.TR11621989 bus1=BMT7821445B.1.2.3,bus2=BMT7821473B.1.2.3,Phases=3,Linecode=CABA06_3_3,Length=0.025168000,Units=km
new line.TR11621996 bus1=BMT7821473B.1.2.3,bus2=BMT172015529.1.2.3,Phases=3,Linecode=CABA06_3_3,Length=0.034998000,Units=km
new line.TR11622059 bus1=BMT172015529.1.2.3,bus2=BMT7821935B.1.2.3,Phases=3,Linecode=CABA06_3_3,Length=0.022126000,Units=km
new line.TR11622066 bus1=BMT7821935B.1.2.3,bus2=BMT7821942B.1.2.3,Phases=3,Linecode=CABA06_3_3,Length=0.045256000,Units=km
new line.TR11622073 bus1=BMT7821942B.1.2.3,bus2=BMT172015530.1.2.3,Phases=3,Linecode=CABA06_3_3,Length=0.036384000,Units=km
new line.TR11622080 bus1=BMT172015530.1.2.3,bus2=BMT7821802B.1.2.3,Phases=3,Linecode=CABA06_3_3,Length=0.008059000,Units=km
new line.TR11622094 bus1=BMT7821802B.1.2.3,bus2=BMT7821795B.1.2.3,Phases=3,Linecode=CABA06_3_3,Length=0.019305000,Units=km
new line.TR11622115 bus1=BMT7821795B.1.2.3,bus2=BMT7821718B.1.2.3,Phases=3,Linecode=CABA06_3_3,Length=0.027501000,Units=km
new line.TR11622122 bus1=BMT7821718B.1.2.3,bus2=BMT7821704B.1.2.3,Phases=3,Linecode=CABA06_3_3,Length=0.008599000,Units=km
new line.TR11622129 bus1=BMT7821704B.1.2.3,bus2=BMT172015532.1.2.3,Phases=3,Linecode=CABA06_3_3,Length=0.036219000,Units=km
new line.TR11622220 bus1=BMT172015530.1.2.3,bus2=BMT7821816B.1.2.3,Phases=3,Linecode=CABA06_3_3,Length=0.042040000,Units=km
new line.TR11622227 bus1=BMT7821816B.1.2.3,bus2=BMT7821830B.1.2.3,Phases=3,Linecode=CABA06_3_3,Length=0.038583000,Units=km
new line.TR11622269 bus1=BMT7821830B.1.2.3,bus2=BMT172015533.1.2.3,Phases=3,Linecode=CABA06_3_3,Length=0.038931000,Units=km
new line.TR11622360 bus1=BMT172015529.1.2.3,bus2=BMT7821501B.1.2.3,Phases=3,Linecode=CABA06_3_3,Length=0.008059000,Units=km
new line.TR11622381 bus1=BMT7821501B.1.2.3,bus2=BMT7822124B.1.2.3,Phases=3,Linecode=CABA06_3_3,Length=0.034510000,Units=km
new line.TR11622416 bus1=BMT7822124B.1.2.3,bus2=BMT172015531.1.2.3,Phases=3,Linecode=CABA06_3_3,Length=0.043304000,Units=km
...
