CemigDFeeders/IIGU115/IIGU115ChavesMT.dss
new line.CTR106891 bus1=BMT172016419.3,bus2=BMT172016431.3,Phases=1,LineCode=tieSwitch1,Length=0.001,Units=km,switch=T !numEQ 49170
new line.CTR161491 bus1=BMT172016642.1.2.3,bus2=BMT172254919.1.2.3,Phases=3,LineCode=tieSwitch,Length=0.001,Units=km,switch=T !numEQ 127869
new line.CTR321763 bus1=BMT172015419.2,bus2=BMT172016193.2,Phases=1,LineCode=tieSwitch1,Length=0.001,Units=km,switch=T !numEQ 113444
new line.CTR428009 bus1=BMT172015462.3,bus2=BMT172016017.3,Phases=1,LineCode=tieSwitch1,Length=0.001,Units=km,switch=T !numEQ 48321
new line.CTR428688 bus1=BMT172016645.1.2.3,bus2=BMT172016646.1.2.3,Phases=3,LineCode=tieSwitch,Length=0.001,Units=km,switch=T !numEQ 48760
new line.CTR428856 bus1=BMT172015289.1.2.3,bus2=BMT172015294.1.2.3,Phases=3,LineCode=tieSwitch,Length=0.001,Units=km,switch=T !numEQ 48591
new line.CTR429059 bus1=BMT172607074.1.2.3,bus2=BMT172015465.1.2.3,Phases=3,LineCode=tieSwitch,Length=0.001,Units=km,switch=T !numEQ 141494
new line.CTR429073 bus1=BMT172605776.1.2.3,bus2=BMT172015468.1.2.3,Phases=3,LineCode=tieSwitch,Length=0.001,Units=km,switch=T !numEQ 142312
open line.CTR429073 term=1
new line.CTR430151 bus1=BMT172016413.3,bus2=BMT172016444.3,Phases=1,LineCode=tieSwitch1,Length=0.001,Units=km,switch=T !numEQ 48638
new line.CTR430263 bus1=BMT172015493.1.2.3,bus2=BMT172015494.1.2.3,Phases=3,LineCode=tieSwitch,Length=0.001,Units=km,switch=T !numEQ 48676
new line.CTR430291 bus1=BMT172015334.1.2.3,bus2=BMT172015342.1.2.3,Phases=3,LineCode=tieSwitch,Length=0.001,Units=km,switch=T !numEQ 48679
new line.CTR430417 bus1=BMT172015472.1.2.3,bus2=BMT172015475.1.2.3,Phases=3,LineCode=tieSwitch,Length=0.001,Units=km,switch=T !numEQ 48741
new line.CTR430480 bus1=BMT172015999.1.2.3,bus2=BMT173152475.1.2.3,Phases=3,LineCode=tieSwitch,Length=0.001,Units=km,switch=T !numEQ 48739
new line.CTR430487 bus1=BMT172015441.1.2.3,bus2=BMT172607063.1.2.3,Phases=3,LineCode=tieSwitch,Length=0.001,Units=km,switch=T !numEQ 48745
new line.CTR430501 bus1=BMT172016401.3,bus2=BMT172016457.3,Phases=1,LineCode=tieSwitch1,Length=0.001,Units=km,switch=T !numEQ 48749
new line.CTR430508 bus1=BMT172015390.2,bus2=BMT172015394.2,Phases=1,LineCode=tieSwitch1,Length=0.001,Units=km,switch=T !numEQ 48751
new line.CTR430515 bus1=BMT172015375.1.2.3,bus2=BMT172015376.1.2.3,Phases=3,LineCode=tieSwitch,Length=0.001,Units=km,switch=T !numEQ 48754
new line.CTR430522 bus1=BMT172016634.1.2.3,bus2=BMT172016635.1.2.3,Phases=3,LineCode=tieSwitch,Length=0.001,Units=km,switch=T !numEQ 48756
new line.CTR430606 bus1=BMT172016601.1.2.3,bus2=BMT172016602.1.2.3,Phases=3,LineCode=tieSwitch,Length=0.001,Units=km,switch=T !numEQ 48782
new line.CTR431250 bus1=BMT172015884.1,bus2=BMT172015898.1,Phases=1,LineCode=tieSwitch1,Length=0.001,Units=km,switch=T !numEQ 48984
new line.CTR431257 bus1=BMT172016400.3,bus2=BMT172016471.3,Phases=1,LineCode=tieSwitch1,Length=0.001,Units=km,switch=T !numEQ 48986
new line.CTR51227 bus1=BMT172016599.1.2.3,bus2=BMT172016600.1.2.3,Phases=3,LineCode=tieSwitch,Length=0.001,Units=km,switch=T !numEQ 49655
new line.CTR514795 bus1=BMT172016616.1.2.3,bus2=BMT172016617.1.2.3,Phases=3,LineCode=tieSwitch,Length=0.001,Units=km,switch=T !numEQ 49244
new line.CTR556403 bus1=BMT172016217.1.2.3,bus2=BMT172016475.1.2.3,Phases=3,LineCode=tieSwitch,Length=0.001,Units=km,switch=T !numEQ 48752
new line.CTR556431 bus1=BMT172387919.1.2.3,bus2=BMT172015391.1.2.3,Phases=3,LineCode=tieSwitch,Length=0.001,Units=km,switch=T !numEQ 48753
open line.CTR556431 term=1
new line.CTR556571 bus1=BMT172016244.3,bus2=BMT172016353.3,Phases=1,LineCode=tieSwitch1,Length=0.001,Units=km,switch=T !numEQ 48717
new line.CTR556851 bus1=BMT172016258.3,bus2=BMT172016279.3,Phases=1,LineCode=tieSwitch1,Length=0.001,Units=km,switch=T !numEQ 48639
new line.CTR559266 bus1=BMT172015517.1.2.3,bus2=BMT172015609.1.2.3,Phases=3,LineCode=tieSwitch,Length=0.001,Units=km,switch=T !numEQ 48005
new line.CTR655586 bus1=BMT172016610.1.2.3,bus2=BMT172016614.1.2.3,Phases=3,LineCode=tieSwitch,Length=0.001,Units=km,switch=T !numEQ 48759
new line.CTR655670 bus1=BMT172016589.1.2.3,bus2=BMT172015361.1.2.3,Phases=3,LineCode=tieSwitch,Length=0.001,Units=km,switch=T !numEQ 137374
open line.CTR655670 term=1
new line.CTR655698 bus1=BMT172015365.1.2.3,bus2=BMT172015366.1.2.3,Phases=3,LineCode=tieSwitch,Length=0.001,Units=km,switch=T !numEQ 137375
new line.CTR702521 bus1=BMT172015905.1,bus2=BMT172015907.1,Phases=1,LineCode=tieSwitch1,Length=0.001,Units=km,switch=T !numEQ 208941
new line.CTR702535 bus1=BMT172015909.1,bus2=BMT172015922.1,Phases=1,LineCode=tieSwitch1,Length=0.001,Units=km,switch=T !numEQ 208942
new line.CTR704215 bus1=BMT172016499.2,bus2=BMT172016508.2,Phases=1,LineCode=tieSwitch1,Length=0.001,Units=km,switch=T !numEQ 207709
new line.CTR704229 bus1=BMT172016500.2,bus2=BMT172016502.2,Phases=1,LineCode=tieSwitch1,Length=0.001,Units=km,switch=T !numEQ 207710
new line.CTR705818 bus1=BMT172015674.2,bus2=BMT172015757.2,Phases=1,LineCode=tieSwitch1,Length=0.001,Units=km,switch=T !numEQ 214972
new line.CTR757324 bus1=BMT172015445.2,bus2=BMT172016040.2,Phases=1,LineCode=tieSwitch1,Length=0.001,Units=km,switch=T !numEQ 282353
new line.CTR811609 bus1=BMT172015959.1,bus2=BMT172015968.1,Phases=1,LineCode=tieSwitch1,Length=0.001,Units=km,switch=T !numEQ 206219
new line.CTR818504 bus1=BMT172017003.3,bus2=BMT172017012.3,Phases=1,LineCode=tieSwitch1,Length=0.001,Units=km,switch=T !numEQ 194298
new line.CTR867223 bus1=BMT172015345.1.2.3,bus2=BMT172015346.1.2.3,Phases=3,LineCode=tieSwitch,Length=0.001,Units=km,switch=T !numEQ 242069
new line.CTR867529 bus1=BMT172015276.1.2.3,bus2=BMT172015277.1.2.3,Phases=3,LineCode=tieSwitch,Length=0.001,Units=km,switch=T !numEQ 165962
new line.CTR881607 bus1=BMT172015313.1.2.3,bus2=BMT172015315.1.2.3,Phases=3,LineCode=tieSwitch,Length=0.001,Units=km,switch=T !numEQ 223973
new line.CTR906965 bus1=BMT172016137.3,bus2=BMT172016138.3,Phases=1,LineCode=tieSwitch1,Length=0.001,Units=km,switch=T !numEQ 261961
new line.CTR906967 bus1=BMT172016139.3,bus2=BMT172016141.3,Phases=1,LineCode=tieSwitch1,Length=0.001,Units=km,switch=T !numEQ 277933
new line.CTRR33086 bus1=BMT172017032.1.2.3,bus2=BMT172017033.1.2.3,Phases=3,LineCode=tieSwitch,Length=0.001,Units=km,switch=T !numEQ 126328
new line.CTRR34647 bus1=BMT172015392.1.2.3,bus2=BMT172015393.1.2.3,Phases=3,LineCode=tieSwitch,Length=0.001,Units=km,switch=T !numEQ 240301
new line.CTR12881 bus1=BMT172015708.2,bus2=BMT172015712.2,Phases=1,LineCode=tieSwitch1,Length=0.001,Units=km,switch=T !numEQ 33234
new line.CTR129669 bus1=BMT172015349.1.2.3,bus2=BMT172015350.1.2.3,Phases=3,LineCode=tieSwitch,Length=0.001,Units=km,switch=T !numEQ 102152
new line.CTR129697 bus1=BMT172015355.1.2.3,bus2=BMT172015356.1.2.3,Phases=3,LineCode=tieSwitch,Length=0.001,Units=km,switch=T !numEQ 102153
new line.CTR143004 bus1=BMT172016984.1.2.3,bus2=BMT172016986.1.2.3,Phases=3,LineCode=tieSwitch,Length=0.001,Units=km,switch=T !numEQ 121929
new line.CTR143529 bus1=BMT172015383.1.2.3,bus2=BMT172015384.1.2.3,Phases=3,LineCode=tieSwitch,Length=0.001,Units=km,switch=T !numEQ 119800
new line.CTR158411 bus1=BMT172015622.1,bus2=BMT172015635.1,Phases=1,LineCode=tieSwitch1,Length=0.001,Units=km,switch=T !numEQ 190829
new line.CTR238183 bus1=BMT172015293.1.2.3,bus2=BMT101014363.1.2.3,Phases=3,LineCode=tieSwitch,Length=0.001,Units=km,switch=T !numEQ 48405
open line.CTR238183 term=1
new line.CTR312768 bus1=BMT172016840.2,bus2=BMT172017070.2,Phases=1,LineCode=tieSwitch1,Length=0.001,Units=km,switch=T !numEQ 102147
new line.CTR314672 bus1=BMT172016752.1.2.3,bus2=BMT172016786.1.2.3,Phases=3,LineCode=tieSwitch,Length=0.001,Units=km,switch=T !numEQ 102294
new line.CTR41693 bus1=BMT172016655.1.2.3,bus2=BMT172016656.1.2.3,Phases=3,LineCode=tieSwitch,Length=0.001,Units=km,switch=T !numEQ 49096
new line.CTR496819 bus1=BMT172015864.3,bus2=BMT172015932.3,Phases=1,LineCode=tieSwitch1,Length=0.001,Units=km,switch=T !numEQ 202539
new line.CTR54195 bus1=BMT172016234.3,bus2=BMT172016240.3,Phases=1,LineCode=tieSwitch1,Length=0.001,Units=km,switch=T !numEQ 48750
new line.CTR54643 bus1=BMT172015431.3,bus2=BMT172016048.3,Phases=1,LineCode=tieSwitch1,Length=0.001,Units=km,switch=T !numEQ 48637
new line.CTR598928 bus1=BMT172017004.3,bus2=BMT172017005.3,Phases=1,LineCode=tieSwitch1,Length=0.001,Units=km,switch=T !numEQ 140480
new line.CTR712384 bus1=BMT172016296.3,bus2=BMT172016316.3,Phases=1,LineCode=tieSwitch1,Length=0.001,Units=km,switch=T !numEQ 212939
new line.CTR712391 bus1=BMT172016297.3,bus2=BMT172016305.3,Phases=1,LineCode=tieSwitch1,Length=0.001,Units=km,switch=T !numEQ 217536
new line.CTR767012 bus1=BMT172016670.2,bus2=BMT172016671.2,Phases=1,LineCode=tieSwitch1,Length=0.001,Units=km,switch=T !numEQ 291666
open line.CTR767012 term=1
new line.CTR772675 bus1=BMT172015949.2,bus2=BMT172015972.2,Phases=1,LineCode=tieSwitch1,Length=0.001,Units=km,switch=T !numEQ 203699
new line.CTR819554 bus1=BMT172016998.3,bus2=BMT172016999.3,Phases=1,LineCode=tieSwitch1,Length=0.001,Units=km,switch=T !numEQ 189782
new line.CTR822970 bus1=BMT172016292.3,bus2=BMT172016350.3,Phases=1,LineCode=tieSwitch1,Length=0.001,Units=km,switch=T !numEQ 229747
new line.CTRR11103 bus1=BMT172015368.1.2.3,bus2=BMT172015369.1.2.3,Phases=3,LineCode=tieSwitch,Length=0.001,Units=km,switch=T !numEQ 140458
new line.CTRR11530 bus1=BMT172015308.1.2.3,bus2=BMT172015310.1.2.3,Phases=3,LineCode=tieSwitch,Length=0.001,Units=km,switch=T !numEQ 112973
new line.CTRR12083 bus1=BMT172016231.3,bus2=BMT172016232.3,Phases=1,LineCode=tieSwitch1,Length=0.001,Units=km,switch=T !numEQ 48747
new line.CTR149759 bus1=BMT172015358.1.2.3,bus2=BMT172016819.1.2.3,Phases=3,LineCode=tieSwitch,Length=0.001,Units=km,switch=T !numEQ 138617
new line.CTR22499 bus1=BMT172016964.1.2.3,bus2=BMT172016971.1.2.3,Phases=3,LineCode=tieSwitch,Length=0.001,Units=km,switch=T !numEQ 73694
new line.CTR330926 bus1=BMT172016295.3,bus2=BMT172016339.3,Phases=1,LineCode=tieSwitch1,Length=0.001,Units=km,switch=T !numEQ 185640
new line.CTR438586 bus1=BMT172016261.3,bus2=BMT172016275.3,Phases=1,LineCode=tieSwitch1,Length=0.001,Units=km,switch=T !numEQ 65565
new line.CTR485087 bus1=BMT172016876.3,bus2=BMT172017068.3,Phases=1,LineCode=tieSwitch1,Length=0.001,Units=km,switch=T !numEQ 73687
new line.CTR53075 bus1=BMT172015721.2,bus2=BMT172015740.2,Phases=1,LineCode=tieSwitch1,Length=0.001,Units=km,switch=T !numEQ 49067
new line.CTR577088 bus1=BMT172016007.3,bus2=BMT172016008.3,Phases=1,LineCode=tieSwitch1,Length=0.001,Units=km,switch=T !numEQ 23506
new line.CTR676698 bus1=BMT172016961.1.2.3,bus2=BMT172017058.1.2.3,Phases=3,LineCode=tieSwitch,Length=0.001,Units=km,switch=T !numEQ 205266
new line.CTR679057 bus1=BMT172016691.1.2.3,bus2=BMT172016699.1.2.3,Phases=3,LineCode=tieSwitch,Length=0.001,Units=km,switch=T !numEQ 130678
new line.CTR780648 bus1=BMT172015777.2,bus2=BMT172015781.2,Phases=1,LineCode=tieSwitch1,Length=0.001,Units=km,switch=T !numEQ 297784
new line.CTR857903 bus1=BMT172017037.1.2.3,bus2=BMT172017038.1.2.3,Phases=3,LineCode=tieSwitch,Length=0.001,Units=km,switch=T !numEQ 126257
new line.CTR857905 bus1=BMT172017039.1.2.3,bus2=BMT172017050.1.2.3,Phases=3,LineCode=tieSwitch,Length=0.001,Units=km,switch=T !numEQ 126258
new line.CTR859007 bus1=BMT172015332.1.2.3,bus2=BMT172015344.1.2.3,Phases=3,LineCode=tieSwitch,Length=0.001,Units=km,switch=T !numEQ 224103
new line.CTR859361 bus1=BMT172015447.1.2.3,bus2=BMT172016021.1.2.3,Phases=3,LineCode=tieSwitch,Length=0.001,Units=km,switch=T !numEQ 208917
new line.CTR885728 bus1=BMT172015902.1,bus2=BMT172015930.1,Phases=1,LineCode=tieSwitch1,Length=0.001,Units=km,switch=T !numEQ 260181
new line.CTR885788 bus1=BMT172016085.3,bus2=BMT172016143.3,Phases=1,LineCode=tieSwitch1,Length=0.001,Units=km,switch=T !numEQ 250318
new line.CTR219367 bus1=BMT172016977.1.2.3,bus2=BMT172017054.1.2.3,Phases=3,LineCode=tieSwitch,Length=0.001,Units=km,switch=T !numEQ 73715
new line.CTR219381 bus1=BMT172015513.1,bus2=BMT172015784.1,Phases=1,LineCode=tieSwitch1,Length=0.001,Units=km,switch=T !numEQ 73720
new line.CTR242348 bus1=BMT172016687.1.2.3,bus2=BMT172016693.1.2.3,Phases=3,LineCode=tieSwitch,Length=0.001,Units=km,switch=T !numEQ 48765
new line.CTR242712 bus1=BMT172016361.3,bus2=BMT172016365.3,Phases=1,LineCode=tieSwitch1,Length=0.001,Units=km,switch=T !numEQ 179347
new line.CTR243265 bus1=BMT172015654.2,bus2=BMT172015655.2,Phases=1,LineCode=tieSwitch1,Length=0.001,Units=km,switch=T !numEQ 48946
new line.CTR287988 bus1=BMT172016511.2,bus2=BMT172016516.2,Phases=1,LineCode=tieSwitch1,Length=0.001,Units=km,switch=T !numEQ 166141
new line.CTR363658 bus1=BMT172015359.1.2.3,bus2=BMT172015360.1.2.3,Phases=3,LineCode=tieSwitch,Length=0.001,Units=km,switch=T !numEQ 102154
new line.CTR431530 bus1=BMT172015845.1.2.3,bus2=BMT172015846.1.2.3,Phases=3,LineCode=tieSwitch,Length=0.001,Units=km,switch=T !numEQ 49068
new line.CTR431537 bus1=BMT172015659.2,bus2=BMT172015760.2,Phases=1,LineCode=tieSwitch1,Length=0.001,Units=km,switch=T !numEQ 49071
new line.CTR431544 bus1=BMT172015704.2,bus2=BMT172015715.2,Phases=1,LineCode=tieSwitch1,Length=0.001,Units=km,switch=T !numEQ 49073
new line.CTR431551 bus1=BMT172016751.1.2.3,bus2=BMT172016759.1.2.3,Phases=3,LineCode=tieSwitch,Length=0.001,Units=km,switch=T !numEQ 49075
new line.CTR431558 bus1=BMT172016689.1.2.3,bus2=BMT172016710.1.2.3,Phases=3,LineCode=tieSwitch,Length=0.001,Units=km,switch=T !numEQ 49077
new line.CTR431635 bus1=BMT172016106.3,bus2=BMT172016110.3,Phases=1,LineCode=tieSwitch1,Length=0.001,Units=km,switch=T !numEQ 49098
new line.CTR431649 bus1=BMT172015544.3,bus2=BMT172015575.3,Phases=1,LineCode=tieSwitch1,Length=0.001,Units=km,switch=T !numEQ 49102
new line.CTR431810 bus1=BMT172016211.1.2.3,bus2=BMT172387911.1.2.3,Phases=3,LineCode=tieSwitch,Length=0.001,Units=km,switch=T !numEQ 48746
new line.CTR431873 bus1=BMT172016418.3,bus2=BMT172016436.3,Phases=1,LineCode=tieSwitch1,Length=0.001,Units=km,switch=T !numEQ 49169
new line.CTR431992 bus1=BMT172015296.1.2.3,bus2=BMT172015300.1.2.3,Phases=3,LineCode=tieSwitch,Length=0.001,Units=km,switch=T !numEQ 49207
new line.CTR432307 bus1=BMT172015371.1.2.3,bus2=BMT173058304.1.2.3,Phases=3,LineCode=tieSwitch,Length=0.001,Units=km,switch=T !numEQ 49352
new line.CTR432587 bus1=BMT172016618.1.2.3,bus2=BMT172016627.1.2.3,Phases=3,LineCode=tieSwitch,Length=0.001,Units=km,switch=T !numEQ 49450
new line.CTR433063 bus1=BMT172015505.1.2.3,bus2=BMT172015787.1.2.3,Phases=3,LineCode=tieSwitch,Length=0.001,Units=km,switch=T !numEQ 49608
new line.CTR434365 bus1=BMT172015448.1.2.3,bus2=BMT172016019.1.2.3,Phases=3,LineCode=tieSwitch,Length=0.001,Units=km,switch=T !numEQ 50796
new line.CTR435156 bus1=BMT172015290.1.2.3,bus2=BMT101014454.1.2.3,Phases=3,LineCode=tieSwitch,Length=0.001,Units=km,switch=T !numEQ 51451
open line.CTR435156 term=1
new line.CTR467958 bus1=BMT172015357.1.2.3,bus2=BMT172016822.1.2.3,Phases=3,LineCode=tieSwitch,Length=0.001,Units=km,switch=T !numEQ 185685
new line.CTR467965 bus1=BMT172016825.2,bus2=BMT172016826.2,Phases=1,LineCode=tieSwitch1,Length=0.001,Units=km,switch=T !numEQ 185952
new line.CTR467979 bus1=BMT172016824.1.2.3,bus2=BMT172016828.1.2.3,Phases=3,LineCode=tieSwitch,Length=0.001,Units=km,switch=T !numEQ 185686
new line.CTR470884 bus1=BMT172015695.2,bus2=BMT172015748.2,Phases=1,LineCode=tieSwitch1,Length=0.001,Units=km,switch=T !numEQ 186761
new line.CTR471402 bus1=BMT172015477.1.2.3,bus2=BMT172016014.1.2.3,Phases=3,LineCode=tieSwitch,Length=0.001,Units=km,switch=T !numEQ 187218
new line.CTR518841 bus1=BMT172016638.1.2.3,bus2=BMT172016817.1.2.3,Phases=3,LineCode=tieSwitch,Length=0.001,Units=km,switch=T !numEQ 185416
new line.CTR568604 bus1=BMT172016976.1.2.3,bus2=BMT172017056.1.2.3,Phases=3,LineCode=tieSwitch,Length=0.001,Units=km,switch=T !numEQ 73696
new line.CTR665918 bus1=BMT172015362.1.2.3,bus2=BMT172015363.1.2.3,Phases=3,LineCode=tieSwitch,Length=0.001,Units=km,switch=T !numEQ 125996
new line.CTR666002 bus1=BMT172016421.3,bus2=BMT172016423.3,Phases=1,LineCode=tieSwitch1,Length=0.001,Units=km,switch=T !numEQ 126006
new line.CTR717998 bus1=BMT172016378.3,bus2=BMT172016379.3,Phases=1,LineCode=tieSwitch1,Length=0.001,Units=km,switch=T !numEQ 219977
new line.CTR775580 bus1=BMT172015400.2,bus2=BMT172015401.2,Phases=1,LineCode=tieSwitch1,Length=0.001,Units=km,switch=T !numEQ 284259
new line.CTR779073 bus1=BMT172015676.2,bus2=BMT172015752.2,Phases=1,LineCode=tieSwitch1,Length=0.001,Units=km,switch=T !numEQ 297545
new line.CTR879870 bus1=BMT172016284.3,bus2=BMT172016301.3,Phases=1,LineCode=tieSwitch1,Length=0.001,Units=km,switch=T !numEQ 237729
new line.CTRR27693 bus1=BMT172015429.3,bus2=BMT172321999.3,Phases=1,LineCode=tieSwitch1,Length=0.001,Units=km,switch=T !numEQ 49097
new line.CTRR29394 bus1=BMT172015318.1.2.3,bus2=BMT172016835.1.2.3,Phases=3,LineCode=tieSwitch,Length=0.001,Units=km,switch=T !numEQ 209028
new line.CTRR30409 bus1=BMT172015330.1.2.3,bus2=BMT136275351.1.2.3,Phases=3,LineCode=tieSwitch,Length=0.001,Units=km,switch=T !numEQ 224102
open line.CTRR30409 term=1
new line.CTR153553 bus1=BMT172016239.3,bus2=BMT172016393.3,Phases=1,LineCode=tieSwitch1,Length=0.001,Units=km,switch=T !numEQ 137835
new line.CTR168351 bus1=BMT172016715.1.2.3,bus2=BMT172016716.1.2.3,Phases=3,LineCode=tieSwitch,Length=0.001,Units=km,switch=T !numEQ 49143
open line.CTR168351 term=1
new line.CTR206060 bus1=BMT172254929.1.2.3,bus2=BMT172016773.1.2.3,Phases=3,LineCode=tieSwitch,Length=0.001,Units=km,switch=T !numEQ 49226
open line.CTR206060 term=1
new line.CTR227312 bus1=BMT172016994.3,bus2=BMT172016997.3,Phases=1,LineCode=tieSwitch1,Length=0.001,Units=km,switch=T !numEQ 65905
new line.CTR370833 bus1=BMT172015408.1.2.3,bus2=BMT172016205.1.2.3,Phases=3,LineCode=tieSwitch,Length=0.001,Units=km,switch=T !numEQ 261064
new line.CTR53845 bus1=BMT172015411.1.2.3,bus2=BMT172015412.1.2.3,Phases=3,LineCode=tieSwitch,Length=0.001,Units=km,switch=T !numEQ 49343
new line.CTR539337 bus1=BMT172016846.1.2.3,bus2=BMT172016863.1.2.3,Phases=3,LineCode=tieSwitch,Length=0.001,Units=km,switch=T !numEQ 73520
new line.CTR539421 bus1=BMT172015486.1.2.3,bus2=BMT172015990.1.2.3,Phases=3,LineCode=tieSwitch,Length=0.001,Units=km,switch=T !numEQ 73532
new line.CTR53985 bus1=BMT172016680.1.2.3,bus2=BMT172016712.1.2.3,Phases=3,LineCode=tieSwitch,Length=0.001,Units=km,switch=T !numEQ 48763
new line.CTR631968 bus1=BMT172015327.1.2.3,bus2=BMT172015328.1.2.3,Phases=3,LineCode=tieSwitch,Length=0.001,Units=km,switch=T !numEQ 102150
new line.CTR680898 bus1=BMT172015521.1.2.3,bus2=BMT172015440.1.2.3,Phases=3,LineCode=tieSwitch,Length=0.001,Units=km,switch=T !numEQ 130817
open line.CTR680898 term=1
new line.CTR845379 bus1=BMT172016735.1,bus2=BMT172016737.1,Phases=1,LineCode=tieSwitch1,Length=0.001,Units=km,switch=T !numEQ 191501
new line.CTR845911 bus1=BMT172016991.1.2.3,bus2=BMT172017030.1.2.3,Phases=3,LineCode=tieSwitch,Length=0.001,Units=km,switch=T !numEQ 126256
new line.CTR873087 bus1=BMT172017075.2,bus2=BMT172017079.2,Phases=1,LineCode=tieSwitch1,Length=0.001,Units=km,switch=T !numEQ 248196
new line.CTRR38747 bus1=BMT172015323.1.2.3,bus2=BMT172015325.1.2.3,Phases=3,LineCode=tieSwitch,Length=0.001,Units=km,switch=T !numEQ 102149
new line.CTRR38754 bus1=BMT172016206.1.2.3,bus2=BMT172016208.1.2.3,Phases=3,LineCode=tieSwitch,Length=0.001,Units=km,switch=T !numEQ 140292
new line.CTRR38755 bus1=BMT172016654.1.2.3,bus2=BMT172016743.1.2.3,Phases=3,LineCode=tieSwitch,Length=0.001,Units=km,switch=T !numEQ 261088
new line.CTRR38810 bus1=BMT172015492.1.2.3,bus2=BMT172015803.1.2.3,Phases=3,LineCode=tieSwitch,Length=0.001,Units=km,switch=T !numEQ 261030
new line.CTRR39633 bus1=BMT172015615.2,bus2=BMT172015647.2,Phases=1,LineCode=tieSwitch1,Length=0.001,Units=km,switch=T !numEQ 49069
new line.CTRR39634 bus1=BMT172015380.2,bus2=BMT172016542.2,Phases=1,LineCode=tieSwitch1,Length=0.001,Units=km,switch=T !numEQ 48768
new line.CTRR39640 bus1=BMT172015536.3,bus2=BMT172015537.3,Phases=1,LineCode=tieSwitch1,Length=0.001,Units=km,switch=T !numEQ 248131
new line.CTRR39646 bus1=BMT172015495.1.2.3,bus2=BMT172015497.1.2.3,Phases=3,LineCode=tieSwitch,Length=0.001,Units=km,switch=T !numEQ 261108
new line.CTRR39663 bus1=BMT172016675.1.2.3,bus2=BMT172016677.1.2.3,Phases=3,LineCode=tieSwitch,Length=0.001,Units=km,switch=T !numEQ 261107
new line.CTR234368 bus1=BMT172016496.1,bus2=BMT172016520.1,Phases=1,LineCode=tieSwitch1,Length=0.001,Units=km,switch=T !numEQ 49483
new line.CTR234445 bus1=BMT172016467.3,bus2=BMT172016469.3,Phases=1,LineCode=tieSwitch1,Length=0.001,Units=km,switch=T !numEQ 49428
new line.CTR234592 bus1=BMT172015548.3,bus2=BMT172015573.3,Phases=1,LineCode=tieSwitch1,Length=0.001,Units=km,switch=T !numEQ 49387
new line.CTR234718 bus1=BMT172015406.1.2.3,bus2=BMT172015407.1.2.3,Phases=3,LineCode=tieSwitch,Length=0.001,Units=km,switch=T !numEQ 49340
new line.CTR234739 bus1=BMT172015410.1.2.3,bus2=BMT172016198.1.2.3,Phases=3,LineCode=tieSwitch,Length=0.001,Units=km,switch=T !numEQ 49344
new line.CTR234753 bus1=BMT172015508.1.2.3,bus2=BMT172015509.1.2.3,Phases=3,LineCode=tieSwitch,Length=0.001,Units=km,switch=T !numEQ 49346
new line.CTR343127 bus1=BMT172016723.1.2.3,bus2=BMT172016726.1.2.3,Phases=3,LineCode=tieSwitch,Length=0.001,Units=km,switch=T !numEQ 131038
new line.CTR422290 bus1=BMT172016683.1.2.3,bus2=BMT172016684.1.2.3,Phases=3,LineCode=tieSwitch,Length=0.001,Units=km,switch=T !numEQ 48764
new line.CTR457563 bus1=BMT172016881.1.2.3,bus2=BMT172016947.1.2.3,Phases=3,LineCode=tieSwitch,Length=0.001,Units=km,switch=T !numEQ 240490
new line.CTR458151 bus1=BMT172016692.1,bus2=BMT172016695.1,Phases=1,LineCode=tieSwitch1,Length=0.001,Units=km,switch=T !numEQ 180649
new line.CTR50961 bus1=BMT172016621.1.2.3,bus2=BMT172016623.1.2.3,Phases=3,LineCode=tieSwitch,Length=0.001,Units=km,switch=T !numEQ 49664
new line.CTR672918 bus1=BMT172016259.3,bus2=BMT172016264.3,Phases=1,LineCode=tieSwitch1,Length=0.001,Units=km,switch=T !numEQ 147148
new line.CTR672946 bus1=BMT172016265.3,bus2=BMT172016269.3,Phases=1,LineCode=tieSwitch1,Length=0.001,Units=km,switch=T !numEQ 147149
new line.CTR731641 bus1=BMT172016992.1.2.3,bus2=BMT172016993.1.2.3,Phases=3,LineCode=tieSwitch,Length=0.001,Units=km,switch=T !numEQ 217248
new line.CTR731704 bus1=BMT172016989.1.2.3,bus2=BMT172016990.1.2.3,Phases=3,LineCode=tieSwitch,Length=0.001,Units=km,switch=T !numEQ 217250
new line.CTR790665 bus1=BMT172016329.3,bus2=BMT172016335.3,Phases=1,LineCode=tieSwitch1,Length=0.001,Units=km,switch=T !numEQ 293154
new line.CTR848213 bus1=BMT172015405.1.2.3,bus2=BMT172016486.1.2.3,Phases=3,LineCode=tieSwitch,Length=0.001,Units=km,switch=T !numEQ 380565
new line.CTR861977 bus1=BMT172015720.2,bus2=BMT172015737.2,Phases=1,LineCode=tieSwitch1,Length=0.001,Units=km,switch=T !numEQ 114510
new line.CTR877330 bus1=BMT172016669.1.2.3,bus2=BMT172016672.1.2.3,Phases=3,LineCode=tieSwitch,Length=0.001,Units=km,switch=T !numEQ 128711
new line.CTR877770 bus1=BMT172015317.1.2.3,bus2=BMT172016830.1.2.3,Phases=3,LineCode=tieSwitch,Length=0.001,Units=km,switch=T !numEQ 233676
new line.CTRR31859 bus1=BMT172016612.1.2.3,bus2=BMT172016633.1.2.3,Phases=3,LineCode=tieSwitch,Length=0.001,Units=km,switch=T !numEQ 127425
new line.CTRR32032 bus1=BMT172016707.1.2.3,bus2=BMT2772429.1.2.3,Phases=3,LineCode=tieSwitch,Length=0.001,Units=km,switch=T !numEQ 288129
open line.CTRR32032 term=1
new line.CTRR32255 bus1=BMT172015436.1.2.3,bus2=BMT172015437.1.2.3,Phases=3,LineCode=tieSwitch,Length=0.001,Units=km,switch=T !numEQ 211370
new line.CTRR32878 bus1=BMT172016996.1.2.3,bus2=BMT148467664.1.2.3,Phases=3,LineCode=tieSwitch,Length=0.001,Units=km,switch=T !numEQ 217249
open line.CTRR32878 term=1
new line.CTR169975 bus1=BMT172015424.1.2.3,bus2=BMT172015425.1.2.3,Phases=3,LineCode=tieSwitch,Length=0.001,Units=km,switch=T !numEQ 73523
new line.CTR209152729 bus1=BMT2212862178.1.2.3,bus2=BMT2209152730.1.2.3,Phases=3,LineCode=tieSwitch,Length=0.001,Units=km,switch=T !numEQ 
new line.CTR209152911 bus1=BMT2209152219.1.2.3,bus2=BMT2212862178.1.2.3,Phases=3,LineCode=tieSwitch,Length=0.001,Units=km,switch=T !numEQ 
new line.CTR209153047 bus1=BMT2209152730.1.2.3,bus2=BMT2209153048.1.2.3,Phases=3,LineCode=tieSwitch,Length=0.001,Units=km,switch=T !numEQ 
new line.CTR231365 bus1=BMT172015299.1.2.3,bus2=BMT172015302.1.2.3,Phases=3,LineCode=tieSwitch,Length=0.001,Units=km,switch=T !numEQ 51452
new line.CTR231393 bus1=BMT172016644.1.2.3,bus2=BMT172016798.1.2.3,Phases=3,LineCode=tieSwitch,Length=0.001,Units=km,switch=T !numEQ 51456
new line.CTR277593 bus1=BMT172016403.3,bus2=BMT172016453.3,Phases=1,LineCode=tieSwitch1,Length=0.001,Units=km,switch=T !numEQ 140522
new line.CTR299377 bus1=BMT172015451.2,bus2=BMT172015454.2,Phases=1,LineCode=tieSwitch1,Length=0.001,Units=km,switch=T !numEQ 48779
new line.CTR336743 bus1=BMT172016793.1.2.3,bus2=BMT172016796.1.2.3,Phases=3,LineCode=tieSwitch,Length=0.001,Units=km,switch=T !numEQ 133331
new line.CTR337856 bus1=BMT172015865.1,bus2=BMT172015866.1,Phases=1,LineCode=tieSwitch1,Length=0.001,Units=km,switch=T !numEQ 135389
new line.CTR37388 bus1=BMT172015535.3,bus2=BMT172015599.3,Phases=1,LineCode=tieSwitch1,Length=0.001,Units=km,switch=T !numEQ 73382
new line.CTR445418 bus1=BMT172015848.1.2.3,bus2=BMT172015937.1.2.3,Phases=3,LineCode=tieSwitch,Length=0.001,Units=km,switch=T !numEQ 73522
new line.CTR445439 bus1=BMT172016661.1.2.3,bus2=BMT172016662.1.2.3,Phases=3,LineCode=tieSwitch,Length=0.001,Units=km,switch=T !numEQ 73537
open line.CTR445439 term=1
new line.CTR445782 bus1=BMT172015514.1.2.3,bus2=BMT172015771.1.2.3,Phases=3,LineCode=tieSwitch,Length=0.001,Units=km,switch=T !numEQ 73848
new line.CTR52774 bus1=BMT172015426.1.2.3,bus2=BMT172016175.1.2.3,Phases=3,LineCode=tieSwitch,Length=0.001,Units=km,switch=T !numEQ 49139
new line.CTR52872 bus1=BMT172016619.1.2.3,bus2=BMT172016620.1.2.3,Phases=3,LineCode=tieSwitch,Length=0.001,Units=km,switch=T !numEQ 49099
new line.CTR52886 bus1=BMT172015552.3,bus2=BMT172015560.3,Phases=1,LineCode=tieSwitch1,Length=0.001,Units=km,switch=T !numEQ 49104
new line.CTR805260 bus1=BMT172015409.1,bus2=BMT172016201.1,Phases=1,LineCode=tieSwitch1,Length=0.001,Units=km,switch=T !numEQ 303722
new line.CTR807521 bus1=BMT172015855.1.2.3,bus2=BMT172015856.1.2.3,Phases=3,LineCode=tieSwitch,Length=0.001,Units=km,switch=T !numEQ 305855
new line.CTR807710 bus1=BMT172015780.1.2.3,bus2=BMT172015501.1.2.3,Phases=3,LineCode=tieSwitch,Length=0.001,Units=km,switch=T !numEQ 180230
open line.CTR807710 term=1
new line.CTR809761 bus1=BMT172016837.3,bus2=BMT172017091.3,Phases=1,LineCode=tieSwitch1,Length=0.001,Units=km,switch=T !numEQ 283942
new line.CTR810580 bus1=BMT172015835.1.2.3,bus2=BMT172015839.1.2.3,Phases=3,LineCode=tieSwitch,Length=0.001,Units=km,switch=T !numEQ 305864
new line.CTR879441 bus1=BMT172015523.1.2.3,bus2=BMT172015606.1.2.3,Phases=3,LineCode=tieSwitch,Length=0.001,Units=km,switch=T !numEQ 233441
new line.CTR916928 bus1=BMT172322033.3,bus2=BMT172322119.3,Phases=1,LineCode=tieSwitch1,Length=0.001,Units=km,switch=T !numEQ 322260
new line.CTRR12832 bus1=BMT172016592.1.2.3,bus2=BMT172016593.1.2.3,Phases=3,LineCode=tieSwitch,Length=0.001,Units=km,switch=T !numEQ 216132
new line.CTR142171 bus1=BMT172016312.3,bus2=BMT172016314.3,Phases=1,LineCode=tieSwitch1,Length=0.001,Units=km,switch=T !numEQ 117801
new line.CTR235306 bus1=BMT172016653.1.2.3,bus2=BMT172016674.1.2.3,Phases=3,LineCode=tieSwitch,Length=0.001,Units=km,switch=T !numEQ 49120
new line.CTR235404 bus1=BMT172016681.1.2.3,bus2=BMT172016728.1.2.3,Phases=3,LineCode=tieSwitch,Length=0.001,Units=km,switch=T !numEQ 49076
new line.CTR235558 bus1=BMT172015549.3,bus2=BMT172015567.3,Phases=1,LineCode=tieSwitch1,Length=0.001,Units=km,switch=T !numEQ 49103
new line.CTR235635 bus1=BMT172015652.2,bus2=BMT172015765.2,Phases=1,LineCode=tieSwitch1,Length=0.001,Units=km,switch=T !numEQ 49070
new line.CTR235649 bus1=BMT172015686.2,bus2=BMT172015710.2,Phases=1,LineCode=tieSwitch1,Length=0.001,Units=km,switch=T !numEQ 49072
new line.CTR236069 bus1=BMT172015681.2,bus2=BMT172015682.2,Phases=1,LineCode=tieSwitch1,Length=0.001,Units=km,switch=T !numEQ 48934
new line.CTR236615 bus1=BMT172015331.1.2.3,bus2=BMT172015333.1.2.3,Phases=3,LineCode=tieSwitch,Length=0.001,Units=km,switch=T !numEQ 48776
new line.CTR236685 bus1=BMT172016025.1,bus2=BMT172016026.1,Phases=1,LineCode=tieSwitch1,Length=0.001,Units=km,switch=T !numEQ 48769
new line.CTR236741 bus1=BMT172788420.1.2.3,bus2=BMT172015471.1.2.3,Phases=3,LineCode=tieSwitch,Length=0.001,Units=km,switch=T !numEQ 48732
new line.CTR236755 bus1=BMT172015487.1.2.3,bus2=BMT172015488.1.2.3,Phases=3,LineCode=tieSwitch,Length=0.001,Units=km,switch=T !numEQ 48734
new line.CTR236783 bus1=BMT172015485.1.2.3,bus2=BMT172015993.1.2.3,Phases=3,LineCode=tieSwitch,Length=0.001,Units=km,switch=T !numEQ 48738
new line.CTR236797 bus1=BMT172015997.1.2.3,bus2=BMT172016004.1.2.3,Phases=3,LineCode=tieSwitch,Length=0.001,Units=km,switch=T !numEQ 48740
new line.CTR236811 bus1=BMT172015430.2,bus2=BMT172016043.2,Phases=1,LineCode=tieSwitch1,Length=0.001,Units=km,switch=T !numEQ 48743
new line.CTR236825 bus1=BMT172015427.3,bus2=BMT172665599.3,Phases=1,LineCode=tieSwitch1,Length=0.001,Units=km,switch=T !numEQ 48744
new line.CTR236853 bus1=BMT172016237.3,bus2=BMT172016397.3,Phases=1,LineCode=tieSwitch1,Length=0.001,Units=km,switch=T !numEQ 48748
new line.CTR237413 bus1=BMT172015285.1.2.3,bus2=BMT2769454.1.2.3,Phases=3,LineCode=tieSwitch,Length=0.001,Units=km,switch=T !numEQ 48590
open line.CTR237413 term=1
new line.CTR237427 bus1=BMT172015297.1.2.3,bus2=BMT172017095.1.2.3,Phases=3,LineCode=tieSwitch,Length=0.001,Units=km,switch=T !numEQ 48592
new line.CTR237434 bus1=BMT172015304.1.2.3,bus2=BMT172015305.1.2.3,Phases=3,LineCode=tieSwitch,Length=0.001,Units=km,switch=T !numEQ 48594
new line.CTR353389 bus1=BMT172016827.2,bus2=BMT100977620.2,Phases=1,LineCode=tieSwitch1,Length=0.001,Units=km,switch=T !numEQ 184992
open line.CTR353389 term=1
new line.CTR425013 bus1=BMT172016778.1.2.3,bus2=BMT172016779.1.2.3,Phases=3,LineCode=tieSwitch,Length=0.001,Units=km,switch=T !numEQ 73851
new line.CTR426994 bus1=BMT172015815.1.2.3,bus2=BMT172015825.1.2.3,Phases=3,LineCode=tieSwitch,Length=0.001,Units=km,switch=T !numEQ 48015
new line.CTR4593 bus1=BMT172015950.1.2.3,bus2=BMT172015951.1.2.3,Phases=3,LineCode=tieSwitch,Length=0.001,Units=km,switch=T !numEQ 203700
new line.CTR553029 bus1=BMT172016799.1.2.3,bus2=BMT172016801.1.2.3,Phases=3,LineCode=tieSwitch,Length=0.001,Units=km,switch=T !numEQ 165043
new line.CTR553519 bus1=BMT172015556.3,bus2=BMT172015558.3,Phases=1,LineCode=tieSwitch1,Length=0.001,Units=km,switch=T !numEQ 49607
new line.CTR553750 bus1=BMT172015798.2,bus2=BMT172015799.2,Phases=1,LineCode=tieSwitch1,Length=0.001,Units=km,switch=T !numEQ 49489
new line.CTR553981 bus1=BMT172016190.1,bus2=BMT172016191.1,Phases=1,LineCode=tieSwitch1,Length=0.001,Units=km,switch=T !numEQ 49402
new line.CTR554009 bus1=BMT172015422.1,bus2=BMT172016184.1,Phases=1,LineCode=tieSwitch1,Length=0.001,Units=km,switch=T !numEQ 49403
new line.CTR554569 bus1=BMT172015377.1.2.3,bus2=BMT172016583.1.2.3,Phases=3,LineCode=tieSwitch,Length=0.001,Units=km,switch=T !numEQ 49197
new line.CTR648600 bus1=BMT172016607.1.2.3,bus2=BMT172016608.1.2.3,Phases=3,LineCode=tieSwitch,Length=0.001,Units=km,switch=T !numEQ 49380
new line.CTR759494 bus1=BMT172015520.1.2.3,bus2=BMT172015522.1.2.3,Phases=3,LineCode=tieSwitch,Length=0.001,Units=km,switch=T !numEQ 224246
new line.CTR759529 bus1=BMT172015528.3,bus2=BMT172015534.3,Phases=1,LineCode=tieSwitch1,Length=0.001,Units=km,switch=T !numEQ 224247
new line.CTR761972 bus1=BMT172015831.1.2.3,bus2=BMT172015986.1.2.3,Phases=3,LineCode=tieSwitch,Length=0.001,Units=km,switch=T !numEQ 219702
new line.CTR761979 bus1=BMT172015836.1.2.3,bus2=BMT172015977.1.2.3,Phases=3,LineCode=tieSwitch,Length=0.001,Units=km,switch=T !numEQ 223702
new line.CTR762322 bus1=BMT172015503.1.2.3,bus2=BMT172015504.1.2.3,Phases=3,LineCode=tieSwitch,Length=0.001,Units=km,switch=T !numEQ 229545
new line.CTR827226 bus1=BMT172015498.1.2.3,bus2=BMT172015794.1.2.3,Phases=3,LineCode=tieSwitch,Length=0.001,Units=km,switch=T !numEQ 190990
new line.CTR854765 bus1=BMT172015817.1.2.3,bus2=BMT172015818.1.2.3,Phases=3,LineCode=tieSwitch,Length=0.001,Units=km,switch=T !numEQ 123360
new line.CTR870422 bus1=BMT172015270.1.2.3,bus2=BMT172015271.1.2.3,Phases=3,LineCode=tieSwitch,Length=0.001,Units=km,switch=T !numEQ 165832
new line.CTR896354 bus1=BMT172015540.3,bus2=BMT172015583.3,Phases=1,LineCode=tieSwitch1,Length=0.001,Units=km,switch=T !numEQ 248133
new line.CTR896356 bus1=BMT172015542.3,bus2=BMT172015543.3,Phases=1,LineCode=tieSwitch1,Length=0.001,Units=km,switch=T !numEQ 248132
new line.CTR908535 bus1=BMT172016578.2,bus2=BMT172016579.2,Phases=1,LineCode=tieSwitch1,Length=0.001,Units=km,switch=T !numEQ 274731
new line.CTR919227 bus1=BMT173058305.2,bus2=BMT173070052.2,Phases=1,LineCode=tieSwitch1,Length=0.001,Units=km,switch=T !numEQ 322492
new line.CTRR23143 bus1=BMT172015481.1.2.3,bus2=BMT172420949.1.2.3,Phases=3,LineCode=tieSwitch,Length=0.001,Units=km,switch=T !numEQ 297709
new line.CTRR43239 bus1=BMT172788284.1.2.3,bus2=BMT172788283.1.2.3,Phases=3,LineCode=tieSwitch,Length=0.001,Units=km,switch=T !numEQ 136107
