CemigDFeeders/IIGU115/IIGU115Transformadores.dss
new transformer.1039600 Phases=1,Windings=3,Buses=[BMT172015759.2 BBT6808839.1.0 BBT6808839.0.2],Conns=[wye wye wye],kvs=[7.967 0.12 0.12],kvas=[5.000000000 5.000000000 5.000000000],Taps=[1,1.000000000,1.000000000],%loadloss=1.900000000,%noloadloss=0.600000000
new transformer.1101564 Phases=3,Windings=2,Buses=[BMT172387914.1.2.3 BBT23688905.1.2.3.0],Conns=[delta wye],kvs=[13.8 0.22],kvas=[75.000000000 75.000000000],Taps=[1,1.000000000],%loadloss=1.340000000,%noloadloss=0.340000000
new transformer.1138349 Phases=3,Windings=2,Buses=[BMT172016022.1.2.3 BBT31067458.1.2.3.0],Conns=[delta wye],kvs=[13.8 0.22],kvas=[45.000000000 45.000000000],Taps=[1,1.000000000],%loadloss=1.522000000,%noloadloss=0.377777000
new transformer.1191395 Phases=1,Windings=3,Buses=[BMT172322121.3 BBT43826778.1.0 BBT43826778.0.2],Conns=[wye wye wye],kvs=[7.967 0.12 0.12],kvas=[5.000000000 5.000000000 5.000000000],Taps=[1,1.000000000,1.000000000],%loadloss=1.900000000,%noloadloss=0.600000000
new transformer.1319796 Phases=1,Windings=3,Buses=[BMT172016668.2 BBT93144753.1.0 BBT93144753.0.2],Conns=[wye wye wye],kvs=[7.967 0.12 0.12],kvas=[35.000000000 35.000000000 35.000000000],Taps=[1,1.000000000,1.000000000],%loadloss=1.293000000,%noloadloss=0.342857000
new transformer.1342693 Phases=3,Windings=2,Buses=[BMT172015531.1.2.3 BBT110018281.1.2.3.0],Conns=[delta wye],kvs=[13.8 0.22],kvas=[45.000000000 45.000000000],Taps=[1,1.000000000],%loadloss=1.522000000,%noloadloss=0.377777000
new transformer.1342700 Phases=3,Windings=2,Buses=[BMT172015527.1.2.3 BBT110019835.1.2.3.0],Conns=[delta wye],kvs=[13.8 0.22],kvas=[45.000000000 45.000000000],Taps=[1,1.000000000],%loadloss=1.522000000,%noloadloss=0.377777000
new transformer.1342728 Phases=3,Windings=2,Buses=[BMT172015532.1.2.3 BBT110037720.1.2.3.0],Conns=[delta wye],kvs=[13.8 0.22],kvas=[45.000000000 45.000000000],Taps=[1,1.000000000],%loadloss=1.522000000,%noloadloss=0.377777000
new transformer.1342735 Phases=3,Windings=2,Buses=[BMT172015533.1.2.3 BBT110038714.1.2.3.0],Conns=[delta wye],kvs=[13.8 0.22],kvas=[45.000000000 45.000000000],Taps=[1,1.000000000],%loadloss=1.522000000,%noloadloss=0.377777000
new transformer.1369496 Phases=1,Windings=3,Buses=[BMT172015935.3 BBT130735943.1.0 BBT130735943.0.2],Conns=[wye wye wye],kvs=[7.967 0.12 0.12],kvas=[15.000000000 15.000000000 15.000000000],Taps=[1,1.000000000,1.000000000],%loadloss=1.600000000,%noloadloss=0.400000000
new transformer.1369972 Phases=3,Windings=2,Buses=[BMT172016792.1.2.3 BBT131045259.1.2.3.0],Conns=[delta wye],kvs=[13.8 0.22],kvas=[45.000000000 45.000000000],Taps=[1,1.000000000],%loadloss=1.522000000,%noloadloss=0.377777000
new transformer.1369979 Phases=3,Windings=2,Buses=[BMT172016791.1.2.3 BBT131045413.1.2.3.0],Conns=[delta wye],kvs=[13.8 0.22],kvas=[45.000000000 45.000000000],Taps=[1,1.000000000],%loadloss=1.522000000,%noloadloss=0.377777000
new transformer.1391098 Phases=1,Windings=3,Buses=[BMT172015319.2 BBT148308341.1.0 BBT148308341.0.2],Conns=[wye wye wye],kvs=[7.967 0.12 0.12],kvas=[5.000000000 5.000000000 5.000000000],Taps=[1,1.000000000,1.000000000],%loadloss=1.900000000,%noloadloss=0.600000000
new transformer.1395357 Phases=3,Windings=2,Buses=[BMT172016747.1.2.3 BBT149284922.1.2.3.0],Conns=[delta wye],kvs=[13.8 0.22],kvas=[30.000000000 30.000000000],Taps=[1,1.000000000],%loadloss=1.667000000,%noloadloss=0.433333000
new transformer.1407196 Phases=1,Windings=3,Buses=[BMT172017031.2 BBT152207466.1.0 BBT152207466.0.2],Conns=[wye wye wye],kvs=[7.967 0.12 0.12],kvas=[5.000000000 5.000000000 5.000000000],Taps=[1,1.000000000,1.000000000],%loadloss=1.900000000,%noloadloss=0.600000000
new transformer.1407231 Phases=3,Windings=2,Buses=[BMT172017040.1.2.3 BBT152214426.1.2.3.0],Conns=[delta wye],kvs=[13.8 0.22],kvas=[75.000000000 75.000000000],Taps=[1,1.000000000],%loadloss=1.340000000,%noloadloss=0.340000000
new transformer.1407235 Phases=3,Windings=2,Buses=[BMT172017051.1.2.3 BBT152215273.1.2.3.0],Conns=[delta wye],kvs=[13.8 0.22],kvas=[45.000000000 45.000000000],Taps=[1,1.000000000],%loadloss=1.522000000,%noloadloss=0.377777000
new transformer.1407240 Phases=3,Windings=2,Buses=[BMT172017047.1.2.3 BBT152216055.1.2.3.0],Conns=[delta wye],kvs=[13.8 0.22],kvas=[75.000000000 75.000000000],Taps=[1,1.000000000],%loadloss=1.340000000,%noloadloss=0.340000000
new transformer.1407243 Phases=3,Windings=2,Buses=[BMT172017044.1.2.3 BBT152216170.1.2.3.0],Conns=[delta wye],kvs=[13.8 0.22],kvas=[75.000000000 75.000000000],Taps=[1,1.000000000],%loadloss=1.340000000,%noloadloss=0.340000000
new transformer.1407244 Phases=3,Windings=2,Buses=[BMT172017043.1.2.3 BBT152216703.1.2.3.0],Conns=[delta wye],kvs=[13.8 0.22],kvas=[75.000000000 75.000000000],Taps=[1,1.000000000],%loadloss=1.340000000,%noloadloss=0.340000000
new transformer.1407247 Phases=3,Windings=2,Buses=[BMT172017045.1.2.3 BBT152217617.1.2.3.0],Conns=[delta wye],kvs=[13.8 0.22],kvas=[75.000000000 75.000000000],Taps=[1,1.000000000],%loadloss=1.340000000,%noloadloss=0.340000000
new transformer.1407248 Phases=3,Windings=2,Buses=[BMT172017049.1.2.3 BBT152218618.1.2.3.0],Conns=[delta wye],kvs=[13.8 0.22],kvas=[75.000000000 75.000000000],Taps=[1,1.000000000],%loadloss=1.340000000,%noloadloss=0.340000000
new transformer.1407249 Phases=3,Windings=2,Buses=[BMT172017048.1.2.3 BBT152219305.1.2.3.0],Conns=[delta wye],kvs=[13.8 0.22],kvas=[75.000000000 75.000000000],Taps=[1,1.000000000],%loadloss=1.340000000,%noloadloss=0.340000000
new transformer.1407251 Phases=3,Windings=2,Buses=[BMT172017052.1.2.3 BBT152219879.1.2.3.0],Conns=[delta wye],kvs=[13.8 0.22],kvas=[45.000000000 45.000000000],Taps=[1,1.000000000],%loadloss=1.522000000,%noloadloss=0.377777000
new transformer.1407252 Phases=3,Windings=2,Buses=[BMT172017053.1.2.3 BBT152219888.1.2.3.0],Conns=[delta wye],kvs=[13.8 0.22],kvas=[45.000000000 45.000000000],Taps=[1,1.000000000],%loadloss=1.522000000,%noloadloss=0.377777000
new transformer.1407553 Phases=1,Windings=3,Buses=[BMT172016559.2 BBT152289210.1.0 BBT152289210.0.2],Conns=[wye wye wye],kvs=[7.967 0.12 0.12],kvas=[10.000000000 10.000000000 10.000000000],Taps=[1,1.000000000,1.000000000],%loadloss=1.800000000,%noloadloss=0.450000000
new transformer.1413043 Phases=3,Windings=2,Buses=[BMT172015434.1.2.3 BBT153434188.1.2.3.0],Conns=[delta wye],kvs=[13.8 0.22],kvas=[45.000000000 45.000000000],Taps=[1,1.000000000],%loadloss=1.522000000,%noloadloss=0.377777000
new transformer.1436843 Phases=3,Windings=2,Buses=[BMT172016722.1.2.3 BBT158523559.1.2.3.0],Conns=[delta wye],kvs=[13.8 0.22],kvas=[45.000000000 45.000000000],Taps=[1,1.000000000],%loadloss=1.522000000,%noloadloss=0.377777000
new transformer.1448409 Phases=1,Windings=3,Buses=[BMT172016146.3 BBT161298179.1.0 BBT161298179.0.2],Conns=[wye wye wye],kvs=[7.967 0.12 0.12],kvas=[10.000000000 10.000000000 10.000000000],Taps=[1,1.000000000,1.000000000],%loadloss=1.800000000,%noloadloss=0.450000000
new transformer.1045438 Phases=1,Windings=3,Buses=[BMT172016525.1 BBT7315527.1.0 BBT7315527.0.2],Conns=[wye wye wye],kvs=[7.967 0.12 0.12],kvas=[15.000000000 15.000000000 15.000000000],Taps=[1,1.000000000,1.000000000],%loadloss=1.600000000,%noloadloss=0.400000000
new transformer.1045466 Phases=1,Windings=3,Buses=[BMT172016552.2 BBT7318495.1.0 BBT7318495.0.2],Conns=[wye wye wye],kvs=[7.967 0.12 0.12],kvas=[10.000000000 10.000000000 10.000000000],Taps=[1,1.000000000,1.000000000],%loadloss=1.800000000,%noloadloss=0.450000000
new transformer.1123789 Phases=3,Windings=2,Buses=[BMT172017064.1.2.3 BBT28028142.1.2.3.0],Conns=[delta wye],kvs=[13.8 0.22],kvas=[45.000000000 45.000000000],Taps=[1,1.000000000],%loadloss=1.522000000,%noloadloss=0.377777000
new transformer.1123810 Phases=3,Windings=2,Buses=[BMT172017065.1.2.3 BBT28033154.1.2.3.0],Conns=[delta wye],kvs=[13.8 0.22],kvas=[75.000000000 75.000000000],Taps=[1,1.000000000],%loadloss=1.340000000,%noloadloss=0.340000000
new transformer.1123831 Phases=3,Windings=2,Buses=[BMT172017066.1.2.3 BBT28036801.1.2.3.0],Conns=[delta wye],kvs=[13.8 0.22],kvas=[45.000000000 45.000000000],Taps=[1,1.000000000],%loadloss=1.522000000,%noloadloss=0.377777000
new transformer.1123866 Phases=3,Windings=2,Buses=[BMT172017067.1.2.3 BBT28039174.1.2.3.0],Conns=[delta wye],kvs=[13.8 0.22],kvas=[45.000000000 45.000000000],Taps=[1,1.000000000],%loadloss=1.522000000,%noloadloss=0.377777000
new transformer.1123887 Phases=3,Windings=2,Buses=[BMT172017062.1.2.3 BBT28042576.1.2.3.0],Conns=[delta wye],kvs=[13.8 0.22],kvas=[45.000000000 45.000000000],Taps=[1,1.000000000],%loadloss=1.522000000,%noloadloss=0.377777000
new transformer.1148478 Phases=1,Windings=3,Buses=[BMT172015439.1 BBT32644404.1.0 BBT32644404.0.2],Conns=[wye wye wye],kvs=[7.967 0.12 0.12],kvas=[5.000000000 5.000000000 5.000000000],Taps=[1,1.000000000,1.000000000],%loadloss=1.900000000,%noloadloss=0.600000000
new transformer.1198521 Phases=1,Windings=3,Buses=[BMT172016565.2 BBT44065898.1.0 BBT44065898.0.2],Conns=[wye wye wye],kvs=[7.967 0.12 0.12],kvas=[5.000000000 5.000000000 5.000000000],Taps=[1,1.000000000,1.000000000],%loadloss=1.900000000,%noloadloss=0.600000000
new transformer.1200537 Phases=1,Windings=3,Buses=[BMT172015758.2 BBT43933108.1.0 BBT43933108.0.2],Conns=[wye wye wye],kvs=[7.967 0.12 0.12],kvas=[5.000000000 5.000000000 5.000000000],Taps=[1,1.000000000,1.000000000],%loadloss=1.900000000,%noloadloss=0.600000000
new transformer.1223350 Phases=1,Windings=3,Buses=[BMT172015653.2 BBT62874807.1.0 BBT62874807.0.2],Conns=[wye wye wye],kvs=[7.967 0.12 0.12],kvas=[5.000000000 5.000000000 5.000000000],Taps=[1,1.000000000,1.000000000],%loadloss=1.900000000,%noloadloss=0.600000000
new transformer.1223595 Phases=1,Windings=3,Buses=[BMT172015885.1 BBT62823812.1.0 BBT62823812.0.2],Conns=[wye wye wye],kvs=[7.967 0.12 0.12],kvas=[5.000000000 5.000000000 5.000000000],Taps=[1,1.000000000,1.000000000],%loadloss=1.900000000,%noloadloss=0.600000000
new transformer.1250755 Phases=1,Windings=3,Buses=[BMT172015555.3 BBT60435076.1.0 BBT60435076.0.2],Conns=[wye wye wye],kvs=[7.967 0.12 0.12],kvas=[10.000000000 10.000000000 10.000000000],Taps=[1,1.000000000,1.000000000],%loadloss=1.800000000,%noloadloss=0.450000000
new transformer.1277068 Phases=1,Windings=3,Buses=[BMT172016531.1 BBT93398188.1.0 BBT93398188.0.2],Conns=[wye wye wye],kvs=[7.967 0.12 0.12],kvas=[5.000000000 5.000000000 5.000000000],Taps=[1,1.000000000,1.000000000],%loadloss=1.900000000,%noloadloss=0.600000000
new transformer.1327349 Phases=1,Windings=3,Buses=[BMT172015403.2 BBT96530849.1.0 BBT96530849.0.2],Conns=[wye wye wye],kvs=[7.967 0.12 0.12],kvas=[5.000000000 5.000000000 5.000000000],Taps=[1,1.000000000,1.000000000],%loadloss=1.900000000,%noloadloss=0.600000000
new transformer.1375096 Phases=3,Windings=2,Buses=[BMT172015774.1.2.3 BBT134720889.1.2.3.0],Conns=[delta wye],kvs=[13.8 0.22],kvas=[45.000000000 45.000000000],Taps=[1,1.000000000],%loadloss=1.522000000,%noloadloss=0.377777000
new transformer.1392908 Phases=1,Windings=3,Buses=[BMT172017078.2 BBT148713711.1.0 BBT148713711.0.2],Conns=[wye wye wye],kvs=[7.967 0.12 0.12],kvas=[15.000000000 15.000000000 15.000000000],Taps=[1,1.000000000,1.000000000],%loadloss=1.600000000,%noloadloss=0.400000000
new transformer.1392909 Phases=1,Windings=3,Buses=[BMT172017077.2 BBT148713737.1.0 BBT148713737.0.2],Conns=[wye wye wye],kvs=[7.967 0.12 0.12],kvas=[35.000000000 35.000000000 35.000000000],Taps=[1,1.000000000,1.000000000],%loadloss=1.293000000,%noloadloss=0.342857000
new transformer.1438381 Phases=1,Windings=3,Buses=[BMT172015613.1 BBT158824735.1.0 BBT158824735.0.2],Conns=[wye wye wye],kvs=[7.967 0.12 0.12],kvas=[25.000000000 25.000000000 25.000000000],Taps=[1,1.000000000,1.000000000],%loadloss=1.420000000,%noloadloss=0.320000000
new transformer.1438441 Phases=1,Windings=3,Buses=[BMT172016304.3 BBT158838864.1.0 BBT158838864.0.2],Conns=[wye wye wye],kvs=[7.967 0.12 0.12],kvas=[10.000000000 10.000000000 10.000000000],Taps=[1,1.000000000,1.000000000],%loadloss=1.800000000,%noloadloss=0.450000000
new transformer.1444056 Phases=1,Windings=3,Buses=[BMT172016577.2 BBT160033549.1.0 BBT160033549.0.2],Conns=[wye wye wye],kvs=[7.967 0.12 0.12],kvas=[10.000000000 10.000000000 10.000000000],Taps=[1,1.000000000,1.000000000],%loadloss=1.800000000,%noloadloss=0.450000000
new transformer.1444057 Phases=1,Windings=3,Buses=[BMT172016581.2 BBT160033719.1.0 BBT160033719.0.2],Conns=[wye wye wye],kvs=[7.967 0.12 0.12],kvas=[10.000000000 10.000000000 10.000000000],Taps=[1,1.000000000,1.000000000],%loadloss=1.800000000,%noloadloss=0.450000000
new transformer.1454954 Phases=1,Windings=3,Buses=[BMT172016428.3 BBT163060466.1.0 BBT163060466.0.2],Conns=[wye wye wye],kvs=[7.967 0.12 0.12],kvas=[10.000000000 10.000000000 10.000000000],Taps=[1,1.000000000,1.000000000],%loadloss=1.800000000,%noloadloss=0.450000000
new transformer.1460342 Phases=1,Windings=3,Buses=[BMT172015301.2 BBT164441266.1.0 BBT164441266.0.2],Conns=[wye wye wye],kvs=[7.967 0.12 0.12],kvas=[10.000000000 10.000000000 10.000000000],Taps=[1,1.000000000,1.000000000],%loadloss=1.800000000,%noloadloss=0.450000000
new transformer.1471776 Phases=3,Windings=2,Buses=[BMT172016775.1.2.3 BBT166704700.1.2.3.0],Conns=[delta wye],kvs=[13.8 0.22],kvas=[45.000000000 45.000000000],Taps=[1,1.000000000],%loadloss=1.522000000,%noloadloss=0.377777000
new transformer.1484314 Phases=1,Windings=3,Buses=[BMT172665615.3 BBT168915920.1.0 BBT168915920.0.2],Conns=[wye wye wye],kvs=[7.967 0.12 0.12],kvas=[10.000000000 10.000000000 10.000000000],Taps=[1,1.000000000,1.000000000],%loadloss=1.800000000,%noloadloss=0.450000000
new transformer.1504651 Phases=1,Windings=3,Buses=[BMT173070057.2 BBT173057531.1.0 BBT173057531.0.2],Conns=[wye wye wye],kvs=[7.967 0.12 0.12],kvas=[10.000000000 10.000000000 10.000000000],Taps=[1,1.000000000,1.000000000],%loadloss=1.800000000,%noloadloss=0.450000000
new transformer.1505006 Phases=3,Windings=2,Buses=[BMT173152479.1.2.3 BBT173135834.1.2.3.0],Conns=[delta wye],kvs=[13.8 0.22],kvas=[45.000000000 45.000000000],Taps=[1,1.000000000],%loadloss=1.522000000,%noloadloss=0.377777000
new transformer.527459 Phases=3,Windings=2,Buses=[BMT172015309.1.2.3 BBT2048447.1.2.3.0],Conns=[delta wye],kvs=[13.8 0.22],kvas=[75.000000000 75.000000000],Taps=[1,1.000000000],%loadloss=1.340000000,%noloadloss=0.340000000
new transformer.527592 Phases=1,Windings=3,Buses=[BMT172017103.3 BBT2050155.1.0 BBT2050155.0.2],Conns=[wye wye wye],kvs=[7.967 0.12 0.12],kvas=[25.000000000 25.000000000 25.000000000],Taps=[1,1.000000000,1.000000000],%loadloss=1.420000000,%noloadloss=0.320000000
new transformer.1035274 Phases=1,Windings=3,Buses=[BMT172015577.3 BBT6625712.1.0 BBT6625712.0.2],Conns=[wye wye wye],kvs=[7.967 0.12 0.12],kvas=[5.000000000 5.000000000 5.000000000],Taps=[1,1.000000000,1.000000000],%loadloss=1.900000000,%noloadloss=0.600000000
new transformer.1035281 Phases=1,Windings=3,Buses=[BMT172015579.3 BBT6625726.1.0 BBT6625726.0.2],Conns=[wye wye wye],kvs=[7.967 0.12 0.12],kvas=[10.000000000 10.000000000 10.000000000],Taps=[1,1.000000000,1.000000000],%loadloss=1.800000000,%noloadloss=0.450000000
new transformer.1050618 Phases=3,Windings=2,Buses=[BMT172016980.1.2.3 BBT7563663.1.2.3.0],Conns=[delta wye],kvs=[13.8 0.22],kvas=[45.000000000 45.000000000],Taps=[1,1.000000000],%loadloss=1.522000000,%noloadloss=0.377777000
new transformer.1159839 Phases=1,Windings=3,Buses=[BMT172015746.2 BBT39032443.1.0 BBT39032443.0.2],Conns=[wye wye wye],kvs=[7.967 0.12 0.12],kvas=[5.000000000 5.000000000 5.000000000],Taps=[1,1.000000000,1.000000000],%loadloss=1.900000000,%noloadloss=0.600000000
new transformer.1363476 Phases=3,Windings=2,Buses=[BMT172015834.1.2.3 BBT126483646.1.2.3.0],Conns=[delta wye],kvs=[13.8 0.22],kvas=[75.000000000 75.000000000],Taps=[1,1.000000000],%loadloss=1.340000000,%noloadloss=0.340000000
new transformer.1380514 Phases=3,Windings=2,Buses=[BMT172016637.1.2.3 BBT137056166.1.2.3.0],Conns=[delta wye],kvs=[13.8 0.22],kvas=[45.000000000 45.000000000],Taps=[1,1.000000000],%loadloss=1.522000000,%noloadloss=0.377777000
new transformer.1382453 Phases=1,Windings=3,Buses=[BMT172016838.2 BBT137612106.1.0 BBT137612106.0.2],Conns=[wye wye wye],kvs=[7.967 0.12 0.12],kvas=[15.000000000 15.000000000 15.000000000],Taps=[1,1.000000000,1.000000000],%loadloss=1.600000000,%noloadloss=0.400000000
new transformer.1412323 Phases=1,Windings=3,Buses=[BMT172015739.2 BBT153283581.1.0 BBT153283581.0.2],Conns=[wye wye wye],kvs=[7.967 0.12 0.12],kvas=[15.000000000 15.000000000 15.000000000],Taps=[1,1.000000000,1.000000000],%loadloss=1.600000000,%noloadloss=0.400000000
new transformer.1430836 Phases=1,Windings=3,Buses=[BMT172015398.2 BBT157393244.1.0 BBT157393244.0.2],Conns=[wye wye wye],kvs=[7.967 0.12 0.12],kvas=[10.000000000 10.000000000 10.000000000],Taps=[1,1.000000000,1.000000000],%loadloss=1.800000000,%noloadloss=0.450000000
new transformer.1442112 Phases=3,Windings=2,Buses=[BMT172016979.1.2.3 BBT159603563.1.2.3.0],Conns=[delta wye],kvs=[13.8 0.22],kvas=[45.000000000 45.000000000],Taps=[1,1.000000000],%loadloss=1.522000000,%noloadloss=0.377777000
new transformer.1442116 Phases=3,Windings=2,Buses=[BMT172016975.1.2.3 BBT159604507.1.2.3.0],Conns=[delta wye],kvs=[13.8 0.22],kvas=[45.000000000 45.000000000],Taps=[1,1.000000000],%loadloss=1.522000000,%noloadloss=0.377777000
new transformer.1453980 Phases=1,Windings=3,Buses=[BMT172016121.3 BBT162773573.1.0 BBT162773573.0.2],Conns=[wye wye wye],kvs=[7.967 0.12 0.12],kvas=[10.000000000 10.000000000 10.000000000],Taps=[1,1.000000000,1.000000000],%loadloss=1.800000000,%noloadloss=0.450000000
new transformer.1465558 Phases=3,Windings=2,Buses=[BMT172016878.1.2.3 BBT165478186.1.2.3.0],Conns=[delta wye],kvs=[13.8 0.22],kvas=[10.000000000 10.000000000],Taps=[1,1.000000000],%loadloss=1.967000000,%noloadloss=0.750000000
new transformer.1465566 Phases=1,Windings=3,Buses=[BMT172016207.1 BBT165480556.1.0 BBT165480556.0.2],Conns=[wye wye wye],kvs=[7.967 0.12 0.12],kvas=[10.000000000 10.000000000 10.000000000],Taps=[1,1.000000000,1.000000000],%loadloss=1.800000000,%noloadloss=0.450000000
new transformer.1488482 Phases=1,Windings=3,Buses=[BMT172016582.2 BBT169628315.1.0 BBT169628315.0.2],Conns=[wye wye wye],kvs=[7.967 0.12 0.12],kvas=[35.000000000 35.000000000 35.000000000],Taps=[1,1.000000000,1.000000000],%loadloss=1.293000000,%noloadloss=0.342857000
new transformer.542474 Phases=1,Windings=3,Buses=[BMT172016518.2 BBT2237181.1.0 BBT2237181.0.2],Conns=[wye wye wye],kvs=[7.967 0.12 0.12],kvas=[15.000000000 15.000000000 15.000000000],Taps=[1,1.000000000,1.000000000],%loadloss=1.600000000,%noloadloss=0.400000000
new transformer.542481 Phases=3,Windings=2,Buses=[BMT172015404.1.2.3 BBT2237265.1.2.3.0],Conns=[delta wye],kvs=[13.8 0.22],kvas=[45.000000000 45.000000000],Taps=[1,1.000000000],%loadloss=1.522000000,%noloadloss=0.377777000
new transformer.542488 Phases=1,Windings=3,Buses=[BMT172016519.2 BBT2237482.1.0 BBT2237482.0.2],Conns=[wye wye wye],kvs=[7.967 0.12 0.12],kvas=[15.000000000 15.000000000 15.000000000],Taps=[1,1.000000000,1.000000000],%loadloss=1.600000000,%noloadloss=0.400000000
new transformer.542495 Phases=3,Windings=2,Buses=[BMT172016498.1.2.3 BBT2237559.1.2.3.0],Conns=[delta wye],kvs=[13.8 0.22],kvas=[45.000000000 45.000000000],Taps=[1,1.000000000],%loadloss=1.522000000,%noloadloss=0.377777000
new transformer.542502 Phases=1,Windings=3,Buses=[BMT172016507.2 BBT2237804.1.0 BBT2237804.0.2],Conns=[wye wye wye],kvs=[7.967 0.12 0.12],kvas=[35.000000000 35.000000000 35.000000000],Taps=[1,1.000000000,1.000000000],%loadloss=1.293000000,%noloadloss=0.342857000
new transformer.542509 Phases=3,Windings=2,Buses=[BMT172016636.1.2.3 BBT2237972.1.2.3.0],Conns=[delta wye],kvs=[13.8 0.22],kvas=[15.000000000 15.000000000],Taps=[1,1.000000000],%loadloss=1.967000000,%noloadloss=0.500000000
new transformer.542516 Phases=3,Windings=2,Buses=[BMT172016639.1.2.3 BBT2238098.1.2.3.0],Conns=[delta wye],kvs=[13.8 0.22],kvas=[75.000000000 75.000000000],Taps=[1,1.000000000],%loadloss=1.340000000,%noloadloss=0.340000000
new transformer.542523 Phases=3,Windings=2,Buses=[BMT172254934.1.2.3 BBT2238238.1.2.3.0],Conns=[delta wye],kvs=[13.8 0.22],kvas=[30.000000000 30.000000000],Taps=[1,1.000000000],%loadloss=1.667000000,%noloadloss=0.433333000
new transformer.542530 Phases=3,Windings=2,Buses=[BMT172016643.1.2.3 BBT2238315.1.2.3.0],Conns=[delta wye],kvs=[13.8 0.22],kvas=[45.000000000 45.000000000],Taps=[1,1.000000000],%loadloss=1.522000000,%noloadloss=0.377777000
new transformer.542537 Phases=3,Windings=2,Buses=[BMT172016800.1.2.3 BBT2238469.1.2.3.0],Conns=[delta wye],kvs=[13.8 0.22],kvas=[15.000000000 15.000000000],Taps=[1,1.000000000],%loadloss=1.967000000,%noloadloss=0.500000000
new transformer.542544 Phases=3,Windings=2,Buses=[BMT172254932.1.2.3 BBT2238483.1.2.3.0],Conns=[delta wye],kvs=[13.8 0.22],kvas=[45.000000000 45.000000000],Taps=[1,1.000000000],%loadloss=1.522000000,%noloadloss=0.377777000
new transformer.542551 Phases=3,Windings=2,Buses=[BMT172016772.1.2.3 BBT2238602.1.2.3.0],Conns=[delta wye],kvs=[13.8 0.22],kvas=[30.000000000 30.000000000],Taps=[1,1.000000000],%loadloss=1.667000000,%noloadloss=0.433333000
new transformer.542558 Phases=3,Windings=2,Buses=[BMT172254927.1.2.3 BBT2238714.1.2.3.0],Conns=[delta wye],kvs=[13.8 0.22],kvas=[30.000000000 30.000000000],Taps=[1,1.000000000],%loadloss=1.667000000,%noloadloss=0.433333000
new transformer.542565 Phases=3,Windings=2,Buses=[BMT172016647.1.2.3 BBT2238819.1.2.3.0],Conns=[delta wye],kvs=[13.8 0.22],kvas=[75.000000000 75.000000000],Taps=[1,1.000000000],%loadloss=1.340000000,%noloadloss=0.340000000
new transformer.1115613 Phases=1,Windings=3,Buses=[BMT172016013.3 BBT26419731.1.0 BBT26419731.0.2],Conns=[wye wye wye],kvs=[7.967 0.12 0.12],kvas=[35.000000000 35.000000000 35.000000000],Taps=[1,1.000000000,1.000000000],%loadloss=1.293000000,%noloadloss=0.342857000
new transformer.1161232 Phases=3,Windings=2,Buses=[BMT172015826.1.2.3 BBT34989166.1.2.3.0],Conns=[delta wye],kvs=[13.8 0.22],kvas=[45.000000000 45.000000000],Taps=[1,1.000000000],%loadloss=1.522000000,%noloadloss=0.377777000
new transformer.1339872 Phases=1,Windings=3,Buses=[BMT172016338.3 BBT108055215.1.0 BBT108055215.0.2],Conns=[wye wye wye],kvs=[7.967 0.12 0.12],kvas=[5.000000000 5.000000000 5.000000000],Taps=[1,1.000000000,1.000000000],%loadloss=1.900000000,%noloadloss=0.600000000
new transformer.1341405 Phases=1,Windings=3,Buses=[BMT172016463.3 BBT109055081.1.0 BBT109055081.0.2],Conns=[wye wye wye],kvs=[7.967 0.12 0.12],kvas=[15.000000000 15.000000000 15.000000000],Taps=[1,1.000000000,1.000000000],%loadloss=1.600000000,%noloadloss=0.400000000
new transformer.1364484 Phases=3,Windings=2,Buses=[BMT172015428.1.2.3 BBT127369230.1.2.3.0],Conns=[delta wye],kvs=[13.8 0.22],kvas=[45.000000000 45.000000000],Taps=[1,1.000000000],%loadloss=1.522000000,%noloadloss=0.377777000
new transformer.1366486 Phases=3,Windings=2,Buses=[BMT172015840.1.2.3 BBT128649859.1.2.3.0],Conns=[delta wye],kvs=[13.8 0.22],kvas=[45.000000000 45.000000000],Taps=[1,1.000000000],%loadloss=1.522000000,%noloadloss=0.377777000
new transformer.1396177 Phases=1,Windings=3,Buses=[BMT172015389.3 BBT149479653.1.0 BBT149479653.0.2],Conns=[wye wye wye],kvs=[7.967 0.12 0.12],kvas=[10.000000000 10.000000000 10.000000000],Taps=[1,1.000000000,1.000000000],%loadloss=1.800000000,%noloadloss=0.450000000
new transformer.1434801 Phases=3,Windings=2,Buses=[BMT172016834.1.2.3 BBT158145409.1.2.3.0],Conns=[delta wye],kvs=[13.8 0.22],kvas=[45.000000000 45.000000000],Taps=[1,1.000000000],%loadloss=1.522000000,%noloadloss=0.377777000
new transformer.1434805 Phases=3,Windings=2,Buses=[BMT172016833.1.2.3 BBT158145886.1.2.3.0],Conns=[delta wye],kvs=[13.8 0.22],kvas=[45.000000000 45.000000000],Taps=[1,1.000000000],%loadloss=1.522000000,%noloadloss=0.377777000
new transformer.1440638 Phases=1,Windings=3,Buses=[BMT172016883.2 BBT159309283.1.0 BBT159309283.0.2],Conns=[wye wye wye],kvs=[7.967 0.12 0.12],kvas=[35.000000000 35.000000000 35.000000000],Taps=[1,1.000000000,1.000000000],%loadloss=1.293000000,%noloadloss=0.342857000
new transformer.1457460 Phases=1,Windings=3,Buses=[BMT172015770.2 BBT163792455.1.0 BBT163792455.0.2],Conns=[wye wye wye],kvs=[7.967 0.12 0.12],kvas=[10.000000000 10.000000000 10.000000000],Taps=[1,1.000000000,1.000000000],%loadloss=1.800000000,%noloadloss=0.450000000
new transformer.1457467 Phases=1,Windings=3,Buses=[BMT172015769.2 BBT163793572.1.0 BBT163793572.0.2],Conns=[wye wye wye],kvs=[7.967 0.12 0.12],kvas=[10.000000000 10.000000000 10.000000000],Taps=[1,1.000000000,1.000000000],%loadloss=1.800000000,%noloadloss=0.450000000
new transformer.1457532 Phases=3,Windings=2,Buses=[BMT172016831.1.2.3 BBT163807885.1.2.3.0],Conns=[delta wye],kvs=[13.8 0.22],kvas=[45.000000000 45.000000000],Taps=[1,1.000000000],%loadloss=1.522000000,%noloadloss=0.377777000
new transformer.1462627 Phases=1,Windings=3,Buses=[BMT172015714.2 BBT164861690.1.0 BBT164861690.0.2],Conns=[wye wye wye],kvs=[7.967 0.12 0.12],kvas=[35.000000000 35.000000000 35.000000000],Taps=[1,1.000000000,1.000000000],%loadloss=1.293000000,%noloadloss=0.342857000
new transformer.1462832 Phases=3,Windings=2,Buses=[BMT172015322.1.2.3 BBT164888352.1.2.3.0],Conns=[delta wye],kvs=[13.8 0.22],kvas=[75.000000000 75.000000000],Taps=[1,1.000000000],%loadloss=1.340000000,%noloadloss=0.340000000
new transformer.1468539 Phases=3,Windings=2,Buses=[BMT172016717.1.2.3 BBT166217168.1.2.3.0],Conns=[delta wye],kvs=[13.8 0.22],kvas=[45.000000000 45.000000000],Taps=[1,1.000000000],%loadloss=1.522000000,%noloadloss=0.377777000
new transformer.1485028 Phases=1,Windings=3,Buses=[BMT172016142.3 BBT169040319.1.0 BBT169040319.0.2],Conns=[wye wye wye],kvs=[7.967 0.12 0.12],kvas=[10.000000000 10.000000000 10.000000000],Taps=[1,1.000000000,1.000000000],%loadloss=1.800000000,%noloadloss=0.450000000
new transformer.1502828 Phases=1,Windings=3,Buses=[BMT172665631.3 BBT172578068.1.0 BBT172578068.0.2],Conns=[wye wye wye],kvs=[7.967 0.12 0.12],kvas=[35.000000000 35.000000000 35.000000000],Taps=[1,1.000000000,1.000000000],%loadloss=1.293000000,%noloadloss=0.342857000
new transformer.542061 Phases=1,Windings=3,Buses=[BMT172015868.1 BBT2230622.1.0 BBT2230622.0.2],Conns=[wye wye wye],kvs=[7.967 0.12 0.12],kvas=[35.000000000 35.000000000 35.000000000],Taps=[1,1.000000000,1.000000000],%loadloss=1.293000000,%noloadloss=0.342857000
new transformer.542068 Phases=1,Windings=3,Buses=[BMT172015947.1 BBT2230699.1.0 BBT2230699.0.2],Conns=[wye wye wye],kvs=[7.967 0.12 0.12],kvas=[25.000000000 25.000000000 25.000000000],Taps=[1,1.000000000,1.000000000],%loadloss=1.420000000,%noloadloss=0.320000000
new transformer.542075 Phases=1,Windings=3,Buses=[BMT172015853.2 BBT2230769.1.0 BBT2230769.0.2],Conns=[wye wye wye],kvs=[7.967 0.12 0.12],kvas=[15.000000000 15.000000000 15.000000000],Taps=[1,1.000000000,1.000000000],%loadloss=1.600000000,%noloadloss=0.400000000
new transformer.542082 Phases=1,Windings=3,Buses=[BMT172015943.3 BBT2230832.1.0 BBT2230832.0.2],Conns=[wye wye wye],kvs=[7.967 0.12 0.12],kvas=[35.000000000 35.000000000 35.000000000],Taps=[1,1.000000000,1.000000000],%loadloss=1.293000000,%noloadloss=0.342857000
new transformer.542089 Phases=3,Windings=2,Buses=[BMT172015844.1.2.3 BBT2230881.1.2.3.0],Conns=[delta wye],kvs=[13.8 0.22],kvas=[75.000000000 75.000000000],Taps=[1,1.000000000],%loadloss=1.340000000,%noloadloss=0.340000000
new transformer.542096 Phases=3,Windings=2,Buses=[BMT172015985.1.2.3 BBT2231063.1.2.3.0],Conns=[delta wye],kvs=[13.8 0.22],kvas=[75.000000000 75.000000000],Taps=[1,1.000000000],%loadloss=1.340000000,%noloadloss=0.340000000
new transformer.542103 Phases=3,Windings=2,Buses=[BMT172015988.1.2.3 BBT2231245.1.2.3.0],Conns=[delta wye],kvs=[13.8 0.22],kvas=[45.000000000 45.000000000],Taps=[1,1.000000000],%loadloss=1.522000000,%noloadloss=0.377777000
new transformer.542110 Phases=3,Windings=2,Buses=[BMT172015978.1.2.3 BBT2231364.1.2.3.0],Conns=[delta wye],kvs=[13.8 0.22],kvas=[30.000000000 30.000000000],Taps=[1,1.000000000],%loadloss=1.667000000,%noloadloss=0.433333000
...