CemigDFeeders/IIGU115/IIGU115SegmentosBT.dss
new line.10577330 bus1=BBT2797440.1.2.0,bus2=BBT2241367.1.2.0,Phases=2,Linecode=BT108_BT107_7_2_1,Length=0.025285000,Units=km
new line.10577785 bus1=BBT2797930.1.2.3.0,bus2=BBT2797937.1.2.3.0,Phases=3,Linecode=BT810_BT810_4_3_4,Length=0.043393000,Units=km
new line.10577806 bus1=BBT2797909.1.2.3.0,bus2=BBT2797930.1.2.3.0,Phases=3,Linecode=BT810_BT810_4_3_4,Length=0.040290000,Units=km
new line.10577813 bus1=BBT2797909.1.2.3.0,bus2=BBT2797944.1.2.3.0,Phases=3,Linecode=BT810_BT810_4_3_4,Length=0.028638000,Units=km
new line.10577848 bus1=BBT2797902.1.2.3.0,bus2=BBT2797909.1.2.3.0,Phases=3,Linecode=BT803_BT803_4_3_4,Length=0.035492000,Units=km
new line.10577876 bus1=BBT2797895.1.2.3.0,bus2=BBT2797902.1.2.3.0,Phases=3,Linecode=BT803_BT803_4_3_4,Length=0.030348000,Units=km
new line.10577890 bus1=BBT2797888.1.2.3.0,bus2=BBT2797895.1.2.3.0,Phases=3,Linecode=BT803_BT803_4_3_4,Length=0.031304000,Units=km
new line.10577904 bus1=BBT2797657.1.2.3.0,bus2=BBT2797664.1.2.3.0,Phases=3,Linecode=BT810_BT810_4_3_4,Length=0.034522000,Units=km
new line.10577918 bus1=BBT2797664.1.2.3.0,bus2=BBT2797671.1.2.3.0,Phases=3,Linecode=BT810_BT810_4_3_4,Length=0.033224000,Units=km
new line.10577988 bus1=BBT2797881.1.2.3.0,bus2=BBT2797888.1.2.3.0,Phases=3,Linecode=BT803_BT803_4_3_4,Length=0.030348000,Units=km
new line.10578009 bus1=BBT2797874.1.2.3.0,bus2=BBT2797881.1.2.3.0,Phases=3,Linecode=BT803_BT803_4_3_4,Length=0.039829000,Units=km
new line.10578016 bus1=BBT2797867.1.2.3.0,bus2=BBT2797874.1.2.3.0,Phases=3,Linecode=BT518_BT518_7_3_1,Length=0.000500000,Units=km
new line.10578023 bus1=BBT2797874.1.2.3.0,bus2=BBT2797958.1.2.3.0,Phases=3,Linecode=BT803_BT803_4_3_4,Length=0.033224000,Units=km
new line.10578051 bus1=BBT2797958.1.2.3.0,bus2=BBT2797965.1.2.3.0,Phases=3,Linecode=BT803_BT803_4_3_4,Length=0.025285000,Units=km
new line.10578072 bus1=BBT2797965.1.2.3.0,bus2=BBT2797972.1.2.3.0,Phases=3,Linecode=BT803_BT803_4_3_4,Length=0.031032000,Units=km
new line.10578093 bus1=BBT2797972.1.2.3.0,bus2=BBT2797979.1.2.3.0,Phases=3,Linecode=BT810_BT810_4_3_4,Length=0.041571000,Units=km
new line.10578100 bus1=BBT2797972.1.2.0,bus2=BBT7042800.1.2.0,Phases=2,Linecode=BT808_BT808_4_2_3,Length=0.032678000,Units=km
new line.10578107 bus1=BBT2797972.1.2.0,bus2=BBT7042772.1.2.0,Phases=2,Linecode=BT808_BT808_4_2_3,Length=0.036872000,Units=km
new line.10578128 bus1=BBT2797979.1.2.3.0,bus2=BBT2797986.1.2.3.0,Phases=3,Linecode=BT810_BT810_4_3_4,Length=0.045286000,Units=km
new line.10578177 bus1=BBT2797986.1.2.3.0,bus2=BBT2797993.1.2.3.0,Phases=3,Linecode=BT810_BT810_4_3_4,Length=0.025948000,Units=km
new line.10578198 bus1=BBT2797783.1.2.3.0,bus2=BBT2797790.1.2.3.0,Phases=3,Linecode=BT803_BT803_4_3_4,Length=0.037927000,Units=km
new line.10578219 bus1=BBT2797762.1.2.3.0,bus2=BBT2240289.1.2.3.0,Phases=3,Linecode=BT803_BT803_4_3_4,Length=0.036381000,Units=km
new line.10578282 bus1=BBT2797755.1.2.3.0,bus2=BBT2797762.1.2.3.0,Phases=3,Linecode=BT803_BT803_4_3_4,Length=0.042931000,Units=km
new line.10578310 bus1=BBT2797748.1.2.3.0,bus2=BBT2797755.1.2.3.0,Phases=3,Linecode=BT803_BT803_4_3_4,Length=0.037623000,Units=km
new line.10578331 bus1=BBT2797741.1.2.3.0,bus2=BBT2797748.1.2.3.0,Phases=3,Linecode=BT803_BT803_4_3_4,Length=0.035716000,Units=km
new line.10578352 bus1=BBT2797734.1.2.3.0,bus2=BBT2797741.1.2.3.0,Phases=3,Linecode=BT803_BT803_4_3_4,Length=0.037623000,Units=km
new line.10578387 bus1=BBT2797727.1.2.3.0,bus2=BBT2797734.1.2.3.0,Phases=3,Linecode=BT803_BT803_4_3_4,Length=0.034464000,Units=km
new line.10578436 bus1=BBT2797706.1.2.3.0,bus2=BBT2797783.1.2.3.0,Phases=3,Linecode=BT803_BT803_4_3_4,Length=0.023075000,Units=km
new line.10578443 bus1=BBT2797706.1.2.3.0,bus2=BBT2797727.1.2.3.0,Phases=3,Linecode=BT803_BT803_4_3_4,Length=0.030660000,Units=km
new line.10578450 bus1=BBT2797699.1.2.3.0,bus2=BBT2797706.1.2.3.0,Phases=3,Linecode=BT518_BT518_7_3_1,Length=0.000500000,Units=km
new line.10578492 bus1=BBT2797790.1.2.3.0,bus2=BBT2797804.1.2.3.0,Phases=3,Linecode=BT803_BT803_4_3_4,Length=0.039197000,Units=km
new line.10578541 bus1=BBT2797804.1.2.3.0,bus2=BBT2797811.1.2.3.0,Phases=3,Linecode=BT803_BT803_4_3_4,Length=0.033820000,Units=km
new line.10578576 bus1=BBT2797811.1.2.3.0,bus2=BBT2797818.1.2.3.0,Phases=3,Linecode=BT803_BT803_4_3_4,Length=0.032967000,Units=km
new line.10578597 bus1=BBT2797818.1.2.3.0,bus2=BBT2797825.1.2.3.0,Phases=3,Linecode=BT803_BT803_4_3_4,Length=0.036120000,Units=km
new line.10578611 bus1=BBT2797825.1.2.3.0,bus2=BBT2797832.1.2.3.0,Phases=3,Linecode=BT803_BT803_4_3_4,Length=0.036120000,Units=km
new line.10578653 bus1=BBT2798056.1.2.3.0,bus2=BBT2798063.1.2.3.0,Phases=3,Linecode=BT803_BT803_4_3_4,Length=0.039273000,Units=km
new line.10578674 bus1=BBT2798049.1.2.3.0,bus2=BBT2798056.1.2.3.0,Phases=3,Linecode=BT803_BT803_4_3_4,Length=0.044079000,Units=km
new line.10578695 bus1=BBT2798042.1.2.3.0,bus2=BBT2798049.1.2.3.0,Phases=3,Linecode=BT803_BT803_4_3_4,Length=0.040771000,Units=km
...